#
# Copyright (C) 2023 TOYOTA MOTOR CORPORATION. ALL RIGHTS RESERVED.

#
# Package : SatelliteEvaluation
#
# File    : omnetMM2Cx8.ini
#
# descriptioon:  Set Dual Raio for up and down link.
#
[General]

sim-time-limit = 0.3s
**.scalar-recording = true
**.vector-recording = true
image-path = ../../images

#  Simulation parameters        
###
debug-on-errors = true
print-undisposed = true
##parallel-simulation = false

## network 
##
network = VMCC2Car8
include include_networkSat8.ini
**.mobility.updateFromDisplayString  = false

[Config UDPpacket8]
description = "UDP Burst send from MCC to 8Grand Stations"
# cli
**.MCC[0].numApps = 8
#**.MCC[1].numApps = 2
**.MCC[0].app[*].typename = "UdpBasicApp"
**.MCC[0].app[0].destAddresses = "GS[0]"
**.MCC[0].app[1].destAddresses = "GS[1]"
**.MCC[0].app[2].destAddresses = "GS[2]"
**.MCC[0].app[3].destAddresses = "GS[3]"
**.MCC[0].app[4].destAddresses = "GS[4]"
**.MCC[0].app[5].destAddresses = "GS[5]"
**.MCC[0].app[6].destAddresses = "GS[6]"
**.MCC[0].app[7].destAddresses = "GS[7]"
**.MCC[0].app[0].destPort = 8010
**.MCC[0].app[1].destPort = 8020
**.MCC[0].app[2].destPort = 8030
**.MCC[0].app[3].destPort = 8040
**.MCC[0].app[4].destPort = 8050
**.MCC[0].app[5].destPort = 8060
**.MCC[0].app[6].destPort = 8070
**.MCC[0].app[7].destPort = 8080
**.MCC[0].app[*].packetName = "FTP80"+string(ancestorIndex(0)*10+10)

**.MCC[0].app[0].startTime = 0.1s
**.MCC[0].app[1].startTime = 0.10006s
**.MCC[0].app[2].startTime = 0.10012s
**.MCC[0].app[3].startTime = 0.10018s
**.MCC[0].app[4].startTime = 0.10024s
**.MCC[0].app[5].startTime = 0.10030s
**.MCC[0].app[6].startTime = 0.10036s
**.MCC[0].app[7].startTime = 0.10042s
**.MCC[*].app[*].stopTime = 0.3s
**.MCC[*].app[*].messageLength = 4375B
**.MCC[*].app[*].sendInterval = 0.001s

# srv
**.GS[*].numApps = 1
**.GS[*].app[*].typename = "UdpSink"
**.GS[*].app[0].localPort = 8010+parentIndex()*10
**.GS[*].app[*].startTime = 0.1s

[Config UDPAppGS2MCC]
description = "UDP Burst send from 2 Grand Stations to MCC"
**.GS[0].numApps = 1
**.GS[1].numApps = 1
**.GS[*].app[*].typename = "UdpBasicApp"
**.GS[*].app[*].destAddresses = "MCC[0]"
**.GS[0].app[*].destPort = 21
**.GS[1].app[*].destPort = 80
**.GS[0].app[*].packetName = "FTP"
**.GS[1].app[*].packetName = "WWW"
**.GS[0].app[*].startTime = 0.1s
**.GS[1].app[*].startTime = 0.1s+this.sendInterval/2
**.GS[*].app[*].stopTime = 0.3s
**.GS[*].app[*].messageLength = 4375B
**.GS[*].app[*].sendInterval = 0.00012s

**.MCC[*].numApps = 2
**.MCC[*].app[*].typename = "UdpSink"
**.MCC[*].app[0].localPort = 21
**.MCC[*].app[1].localPort = 80
**.MCC[*].app[*].startTime = 0.1s


