<?xml version="1.0" encoding="UTF-8"?>
<!-- 
 This file is made available under the Open Database License: http://opendatacommons.org/licenses/odbl/1.0/. 
 Any rights in individual contents of the database are licensed under the 
 Database Contents License: http://opendatacommons.org/licenses/dbcl/1.0/.
-->
<!-- generated on 2021-07-12 09:49:18 by Eclipse SUMO polyconvert Version 1.9.2
<configuration xmlns:xsi="http://www.w3.org/2001/XMLSchema-instance" xsi:noNamespaceSchemaLocation="http://sumo.dlr.de/xsd/polyconvertConfiguration.xsd">

    <input>
        <net-file value="minatomirai.net.xml"/>
        <osm-files value="minatomirai.osm"/>
        <type-file value="typemap.xml"/>
    </input>

    <output>
        <output-file value="minatomirai.poly.xml"/>
    </output>

    <processing>
        <poi-layer-offset value="5"/>
    </processing>

</configuration>
-->

<additional xmlns:xsi="http://www.w3.org/2001/XMLSchema-instance" xsi:noNamespaceSchemaLocation="http://sumo.dlr.de/xsd/additional_file.xsd">
    <location netOffset="-375943.27,-3923483.56" convBoundary="-445.54,-117.66,1668.36,2202.17" origBoundary="139.627859,35.446234,139.652196,35.466922" projParameter="+proj=utm +zone=54 +ellps=WGS84 +datum=WGS84 +units=m +no_defs"/>

    <poly id="130990623" type="natural" color="140,196,107" fill="0" layer="-4.00" shape="1013.223692,418.335811 1079.685347,414.162182 1090.464554,416.465971 1057.275978,569.136113 1052.207208,571.513137 1013.930353,746.850962 1034.282282,745.617523 1034.458367,745.881352 1147.208239,910.316250 1143.296904,932.213124 1047.493882,997.238006 1074.427459,1038.447042 1206.417456,983.875629 1181.704656,947.705527 1183.755380,946.335088"/>
    <poly id="130990758" type="natural" color="140,196,107" fill="0" layer="-4.00" shape="1174.665620,335.648390 1163.465256,319.183804 1173.045018,312.784608 1141.902040,267.239927 1135.162314,272.890220 1124.388181,281.557827 1116.336952,288.213449 1110.316474,293.354687 1108.304033,292.894174 1098.620715,301.668882 1092.369765,307.212662 1090.475301,304.764788 1083.941128,309.513725 1085.799594,311.984278 1070.397738,321.436526 1045.742804,329.995176 1042.578015,330.892814 1040.889013,330.849433 1039.123600,330.529761 1037.490517,329.930935 1035.852715,328.988274 1034.503815,327.930712 1033.416283,326.736440 1032.571514,325.372434 1031.942583,323.861248 1031.648693,322.289996 1031.647968,320.914405 1031.839660,319.669295 1032.212715,318.410602 1033.047416,317.056825 1034.014963,316.122780 1035.429353,315.337912 1036.696153,315.043187 1037.887209,315.182150 1039.134908,316.141259 1040.038641,317.171650 1046.829419,315.248017 1053.613654,312.847456 1060.148586,310.139701 1066.317143,307.192920 1072.729173,303.466254 1078.765602,299.489594 1084.807155,295.224435 1090.238962,290.845617 1089.533835,289.734841 1095.142348,285.664221 1093.667802,283.388083 1098.154628,280.264712 1095.782590,277.412926 1098.660714,272.159473 1101.274882,266.854175 1103.805393,261.405808 1105.965777,256.106736 1108.285469,249.185820 1110.325131,241.702975 1111.644510,234.651564 1112.698410,227.437392 1116.872180,224.651132 1105.788401,208.761876 1098.383930,213.600391 1049.982015,142.134159 947.799614,207.247255 950.373456,209.585928 961.588970,227.115041 957.829079,229.629446 965.170501,242.019980 968.040410,240.139038 989.547594,274.699697 1002.512352,267.577135 1008.147466,278.670992 975.765880,296.366064 971.689708,300.304784 968.847056,305.491232 967.376308,310.104164 967.184698,315.320770 971.335869,343.286106 971.621581,346.244165 971.051826,348.381953 969.442019,350.800269 1008.928865,420.890822 1013.223692,418.335811"/>
    <poly id="130990769" type="natural" color="140,196,107" fill="0" layer="-4.00" shape="846.652011,1114.094621 833.509340,1126.001254 770.344854,1027.038869 746.717099,993.328839 720.209924,953.545927 683.163776,979.659869 667.029677,982.622121 650.573530,985.267122 633.531205,989.506612 592.218154,1005.651106 578.296412,1012.388143 565.786656,1021.468681 541.556747,1039.618929 527.440154,1052.626618 511.016543,1071.445903 395.880999,998.640276 384.726369,991.461336 278.848725,925.340856 193.643809,937.811409"/>
    <poly id="130990812" type="natural" color="140,196,107" fill="0" layer="-4.00" shape="193.643809,937.811409 141.744581,918.948655 88.578960,885.327013 51.330605,861.303262 51.159412,856.147098 49.346327,852.378168 46.836155,848.086391 44.604531,844.245598 40.734715,841.403714 35.855836,839.108289 29.462595,837.577097 23.926995,837.675895 17.685332,839.226640 13.858271,836.195584 10.338881,831.784661 6.549755,824.936877 6.025231,825.077261 0.005063,814.433063 0.671720,814.068839 -58.625598,705.473455 -59.398709,706.016655 -81.179128,667.035794 -80.523227,666.549683 -84.221767,661.664250 -89.126927,659.446908 -94.428203,658.777069 -99.043311,659.806146 -102.946097,662.456120 -105.618473,665.466233 -107.543290,669.364573 -108.384605,674.157581 -106.603919,680.822367 -105.740678,680.888063 -84.604686,719.866701 -57.190513,771.083452 -25.954393,828.260104 -24.278679,827.349413 -15.187352,844.119131 -15.959685,844.717786 -11.546797,850.724904 -11.278395,851.098371 -7.628246,855.119199 -0.276051,860.353453 96.437263,921.250382 119.544498,932.878611 136.548423,940.309155 153.417627,946.532389 176.212535,953.306073 202.758163,960.882184 202.490169,965.134742 285.560363,1017.624641"/>
    <poly id="130991810" type="natural" color="140,196,107" fill="0" layer="-4.00" shape="285.560363,1017.624641 385.061115,1080.172277 466.893622,1131.926495 473.963421,1136.466117 466.307740,1158.548129 461.264648,1179.861936 457.559325,1204.718343 456.982070,1235.910429 470.806317,1235.298197 471.060921,1234.673444 472.911577,1234.603545 473.155630,1235.188140 487.025099,1234.564216 488.138500,1233.029039 490.065171,1234.522294 495.182212,1225.809815 494.826052,1219.069816 493.559498,1218.055576 493.557153,1216.569065 494.729442,1215.354791 494.653377,1212.471503 493.421745,1211.356939 493.445095,1209.759138 494.535864,1208.557082 494.513993,1206.970998 479.814844,1207.329011 479.721340,1205.155954 478.732026,1205.158504 478.642342,1201.288073 479.720876,1201.173357 479.694108,1199.232345 537.616413,1196.925006 537.669323,1198.788001 538.894279,1198.760022 538.895481,1202.798076 537.897244,1202.811836 537.926141,1204.908129 499.973395,1206.629473 500.106147,1212.307567 501.416547,1213.210267 501.431483,1214.951757 500.428556,1215.941823 500.427637,1217.849935 500.098290,1218.320408 506.101406,1221.865243 507.837258,1218.735100 508.650019,1218.435460 511.110271,1219.788240 511.689126,1218.981520 515.367497,1221.127338 514.970750,1221.975922 517.930065,1223.976345 517.994148,1224.674359 515.600264,1228.135286 520.780514,1231.247731 510.858159,1246.926667 512.067506,1247.742013 514.332084,1247.411264 515.566667,1248.082046 515.863379,1249.852931 518.280541,1251.372710 519.926502,1250.939555 521.099854,1251.777586 521.302146,1253.283527 526.069579,1256.079951 526.572769,1257.027064 590.973968,1254.619646 590.962732,1256.439151 592.504840,1256.373528 592.581674,1260.632411 591.818931,1260.609640 591.780929,1262.462795 513.307455,1265.918426 513.205496,1263.789860 511.980855,1263.840025 511.951803,1259.757980 512.877434,1259.745218 512.874328,1258.203250 513.394091,1257.719059 517.710952,1257.459857 516.444865,1256.478888 516.031399,1256.773023 514.443306,1256.794918 513.255015,1256.190059 513.112881,1254.439230 502.713906,1248.714094 500.448612,1252.284189 496.923247,1250.702040 496.630966,1251.227470 492.875722,1248.772098 493.275524,1248.145343 489.819696,1246.340367 491.828139,1242.574126 490.041416,1241.356281 488.994904,1243.134595 486.952250,1241.787157 473.289984,1242.297288 473.198421,1242.897605 471.148120,1242.970257 471.058339,1242.383534 457.632020,1242.890435 457.593337,1246.008271 507.442104,1276.970869 509.277351,1279.075537 509.828513,1282.185240 509.004233,1284.282202 507.057637,1285.950895 497.595890,1311.330404 489.389625,1338.234622 479.414282,1377.699025 469.991809,1440.130681 468.547629,1480.853050 473.656803,1540.676974 481.988663,1591.337506 497.585697,1641.653791 496.866224,1645.424447 494.110816,1647.670076 441.476399,1648.196442 437.518204,1646.808885 435.133647,1644.356817 431.194039,1641.027624 423.391078,1639.238287 417.994653,1640.178056 412.504097,1643.504255 409.557862,1647.705020 407.217120,1647.770605 384.960613,1648.299667 384.882468,1655.788936 407.407625,1655.655536 414.235067,1665.678690 423.857130,1668.408060 434.211143,1664.326956 439.845655,1654.331522 497.810133,1653.321174 502.108707,1654.382348 503.865426,1656.721061"/>
    <poly id="130991833" type="natural" color="140,196,107" fill="0" layer="-4.00" shape="1183.755380,946.335088 1186.255451,944.636775 1220.102710,994.947997 1097.876572,1045.347176 1097.510928,1044.497989 1083.062645,1050.586934 1135.847625,1128.948777 1273.379610,1072.183415 1278.925896,1080.826962 1248.220315,1102.081426"/>
    <poly id="130992001" type="natural" color="140,196,107" fill="0" layer="-4.00" shape="1248.220315,1102.081426 1146.286533,1170.694905 1023.322430,989.305119 1020.437198,991.374855 906.418955,823.919267 821.407962,882.286348 888.762819,981.657426 932.592290,1045.564283 933.354981,1044.921470 936.229429,1048.675980 936.604621,1049.558312 936.437598,1050.614496 933.744657,1052.803650 935.411050,1063.763396 936.044845,1064.309367 936.645844,1065.110941 936.788354,1066.895049 935.846062,1068.339067 934.134088,1068.595554 932.591726,1067.984411 932.033747,1066.350228 921.498501,1059.949775 846.652011,1114.094621"/>
    <poly id="227150407" type="unknown" color="51,128,255" fill="0" layer="-1.00" shape="623.388214,794.132872 624.744222,793.071398 622.729153,787.141894 627.861330,790.044292 629.612223,788.655667 627.994330,782.565382 626.061792,777.355824 637.751084,769.307299 643.302805,773.013760 647.712472,776.181271 648.511163,775.515751 646.090008,769.758238 644.631902,764.065119 649.937521,767.697318 654.596497,771.172020 662.517625,765.671472"/>
    <poly id="227150408" type="unknown" color="51,128,255" fill="0" layer="-1.00" shape="656.165878,755.941103 647.997357,761.933182 649.937521,767.697318 651.231198,773.315047 646.090008,769.758238 641.925523,766.598445 640.803328,767.501385 643.302805,773.013760 645.234264,778.145681 633.940930,785.944684 627.994330,782.565382 623.112681,780.058902 620.795543,781.854697 622.729153,787.141894 618.640630,784.225125 616.224492,785.423230"/>
    <poly id="227154130" type="landuse" color="194,194,130" fill="1" layer="-3.00" shape="485.476338,896.474813 473.590038,880.342223 472.968692,883.334969 472.900068,885.599010 473.161515,888.102558 473.578821,890.060370 474.363009,891.635940 475.922259,893.467069 477.837633,894.794076 480.000688,895.651736 482.058410,896.111480 483.522114,896.279888 485.476338,896.474813"/>
    <poly id="227154131" type="landuse" color="194,194,130" fill="1" layer="-3.00" shape="486.188326,865.824479 483.025358,866.178714 479.340511,870.156658 476.909219,874.860589 492.911261,895.884179 497.129287,895.027283 500.687783,893.735738 502.821017,892.430564 503.306344,890.105311 498.008626,889.679139 499.213297,884.226667 493.397830,883.774356 495.062581,878.115855 488.954104,877.478995 490.462741,871.689523 484.648183,871.303766 486.188326,865.824479"/>
    <poly id="227154132" type="unknown" color="51,128,255" fill="1" layer="-1.00" shape="486.188326,865.824479 485.426264,864.537036 483.025358,866.178714 486.188326,865.824479"/>
    <poly id="227154133" type="unknown" color="51,128,255" fill="1" layer="-1.00" shape="495.062581,878.115855 490.462741,871.689523 488.954104,877.478995 495.062581,878.115855"/>
    <poly id="227154134" type="unknown" color="51,128,255" fill="1" layer="-1.00" shape="503.306344,890.105311 499.213297,884.226667 498.008626,889.679139 503.306344,890.105311"/>
    <poly id="227154135" type="unknown" color="51,128,255" fill="1" layer="-1.00" shape="502.821017,892.430564 504.322659,891.400344 503.306344,890.105311 502.821017,892.430564"/>
    <poly id="227154136" type="unknown" color="51,128,255" fill="1" layer="-1.00" shape="499.213297,884.226667 495.062581,878.115855 493.397830,883.774356 499.213297,884.226667"/>
    <poly id="227154137" type="unknown" color="51,128,255" fill="1" layer="-1.00" shape="490.462741,871.689523 486.188326,865.824479 484.648183,871.303766 490.462741,871.689523"/>
    <poly id="319351389" type="building" color="255,230,230" fill="1" layer="-1.00" shape="386.689308,1215.247754 432.413801,1202.502596 434.101775,1201.824786 434.937523,1200.559679 435.153578,1199.114529 434.880401,1197.077075 437.094966,1195.094049 437.841744,1192.643153 436.412572,1187.737309 438.071230,1186.250071 439.106110,1183.628797 438.979403,1181.023548 437.997973,1178.308060 439.647404,1176.809856 440.305118,1174.482220 440.300517,1172.174813 439.314955,1169.159855 440.804301,1167.242303 441.305294,1164.739331 440.781587,1162.305962 439.762126,1160.123492 440.886746,1158.743465 441.669168,1156.902226 441.484446,1154.697147 435.491159,1143.974655 417.070966,1123.317344 398.852845,1108.758763 379.627517,1096.199873 352.923247,1079.062760 348.708199,1078.155803 344.322368,1078.027759 340.634579,1079.809274 337.281220,1083.460993 307.065326,1134.110079 377.646958,1186.163084 386.689308,1215.247754"/>
    <poly id="319352387" type="building" color="255,230,230" fill="1" layer="-1.00" shape="279.728589,1057.387035 289.931338,1041.648499 269.087627,1028.257979 258.884897,1043.996539 279.728589,1057.387035"/>
    <poly id="319352390" type="building" color="255,230,230" fill="1" layer="-1.00" shape="294.003831,1053.262731 298.065494,1047.005309 290.427671,1042.096482 286.366011,1048.353908 294.003831,1053.262731"/>
    <poly id="319352565" type="tourism" color="207,245,201" fill="1" layer="-2.00" shape="47.192625,916.484718 281.612155,1063.640002 288.904220,1062.574140 356.367386,966.914323 391.663364,922.563075 426.508648,889.600236 428.490183,865.455413 414.687203,844.623463 413.615101,844.549506 409.433345,843.431279 401.562310,837.416211 394.980178,828.110753 269.527180,910.914795 194.778476,928.621308 97.815072,833.835809 47.192625,916.484718"/>
    <poly id="319352568" type="tourism" color="207,245,201" fill="1" layer="-2.00" shape="345.844446,954.213187 361.872368,951.451506 416.331755,892.769189 424.525706,878.112434 426.063074,865.854984 421.029168,854.287243 408.070667,841.375576 398.894142,838.107549 385.130404,837.887012 306.299078,893.921842 300.690455,901.875753 302.584332,916.104885 310.907820,928.592285 339.110250,951.643687 345.844446,954.213187"/>
    <poly id="351123206" type="building" color="255,230,230" fill="1" layer="-1.00" shape="446.426935,351.485808 456.803317,344.963903 460.069403,350.099572 451.745008,355.339601 448.561159,354.851014 446.426935,351.485808"/>
    <poly id="351123211" type="parking" color="184,184,179" fill="1" layer="-1.00" shape="461.216669,349.695477 480.329460,337.528530 467.750218,317.933192 461.442242,321.947299 465.459069,328.204165 458.467309,332.660354 456.825264,330.098190 451.012186,333.794861 461.216669,349.695477"/>
    <poly id="351129317" type="building" color="255,230,230" fill="1" layer="-1.00" shape="468.936631,377.644717 462.770400,377.452401 456.592147,367.830703 456.813640,364.144577 467.821492,357.336637 471.237520,362.814144 462.902832,367.965556 468.936631,377.644717"/>
    <poly id="353320084" type="aeroway" color="grey" fill="1" layer="-2.00" shape="1081.946223,916.314600 1090.170745,898.518598 1092.554734,899.606337 1093.550856,897.451610 1111.399378,905.637839 1110.297394,908.015887 1112.453130,909.006921 1104.281656,926.702332 1101.961506,925.635901 1100.956615,927.812934 1083.108278,919.637818 1084.174866,917.326814 1081.946223,916.314600"/>
    <poly id="354844486" type="building" color="255,230,230" fill="1" layer="-1.00" shape="526.224882,397.444691 548.273098,383.551208 554.996945,393.908717 554.975231,397.603180 536.459848,408.985186 533.941491,404.748860 531.980418,406.040555 526.224882,397.444691"/>
    <poly id="354868643" type="leisure" color="207,245,201" fill="1" layer="-2.00" shape="643.770521,649.435858 669.047868,687.493814 704.950537,690.327676 719.064356,673.759306 726.050513,665.609226 732.621727,656.987839 745.460278,639.427548 757.236057,621.149722 767.849077,602.144639 771.913336,594.056981 769.867824,588.549423 779.373158,566.220427 784.067176,563.659810 787.488249,555.004142 792.370943,541.081112 771.749854,558.415565 761.330748,569.086695 752.523291,579.458326 745.710944,591.011717 739.612373,602.322328 731.023663,617.372464 722.760194,626.372133 711.571619,634.546767 705.743465,637.799742 704.849423,638.133761 695.781801,641.464610 685.830644,643.254529 666.833857,644.037444 647.704213,644.400673 643.770521,649.435858"/>
    <poly id="354961284" type="building" color="255,230,230" fill="1" layer="-1.00" shape="286.689523,396.100945 280.875303,387.217605 305.166700,371.450996 310.980905,380.334351 292.600338,392.258596 290.657140,393.527911 286.689523,396.100945"/>
    <poly id="354961284#1" type="historic" color="128,255,128" fill="1" layer="-1.00" shape="286.689523,396.100945 280.875303,387.217605 305.166700,371.450996 310.980905,380.334351 292.600338,392.258596 290.657140,393.527911 286.689523,396.100945"/>
    <poly id="355131824" type="unknown" color="51,128,255" fill="0" layer="-1.00" shape="948.660092,504.520792 955.817683,473.138624 976.090985,460.845873 981.630143,468.923581"/>
    <poly id="355131825" type="amenity" color="237,199,199" fill="1" layer="-1.00" shape="924.887517,788.021846 917.170837,776.701490 936.704861,763.509100 944.421527,774.829472 924.887517,788.021846"/>
    <poly id="355131826" type="landuse" color="194,194,130" fill="1" layer="-3.00" shape="966.355101,467.092128 982.738468,470.971766 976.053527,461.423253 966.355101,467.092128"/>
    <poly id="355131826#1" type="leisure" color="207,245,201" fill="1" layer="-2.00" shape="966.355101,467.092128 982.738468,470.971766 976.053527,461.423253 966.355101,467.092128"/>
    <poly id="355131827" type="landuse" color="194,194,130" fill="1" layer="-3.00" shape="959.560294,471.356626 964.293316,472.290045 964.935321,468.143328 959.560294,471.356626"/>
    <poly id="355131827#1" type="leisure" color="207,245,201" fill="1" layer="-2.00" shape="959.560294,471.356626 964.293316,472.290045 964.935321,468.143328 959.560294,471.356626"/>
    <poly id="355131828" type="building" color="255,230,230" fill="1" layer="-1.00" shape="962.367947,725.349691 959.696357,721.170828 963.745836,718.608062 966.417425,722.786926 962.367947,725.349691"/>
    <poly id="355131829" type="building" color="255,230,230" fill="1" layer="-1.00" shape="973.585879,677.005155 970.914281,672.826289 974.963786,670.263529 977.635382,674.442396 973.585879,677.005155"/>
    <poly id="355131830" type="building" color="255,230,230" fill="1" layer="-1.00" shape="968.325319,700.440459 965.662649,696.250379 969.703066,693.687740 972.374810,697.877697 968.325319,700.440459"/>
    <poly id="355135958" type="leisure" color="207,245,201" fill="1" layer="-2.00" shape="999.504162,722.188345 996.222499,717.208019 1001.179463,713.967195 1004.461125,718.947524 999.504162,722.188345"/>
    <poly id="355135960" type="leisure" color="207,245,201" fill="1" layer="-2.00" shape="972.204358,757.507978 974.291087,760.740830 989.416763,751.070296 987.330037,747.837442 972.204358,757.507978"/>
    <poly id="355135962" type="leisure" color="207,245,201" fill="1" layer="-2.00" shape="1007.408333,656.594489 997.743721,641.573371 1012.789016,631.981647 1022.444688,647.013996 1007.408333,656.594489"/>
    <poly id="355135964" type="leisure" color="207,245,201" fill="1" layer="-2.00" shape="1018.629241,635.551253 1015.216087,630.251011 1020.588141,626.827005 1024.001141,632.116158 1018.629241,635.551253"/>
    <poly id="355135965" type="leisure" color="207,245,201" fill="1" layer="-2.00" shape="983.180927,696.875092 973.561081,681.809011 988.760259,672.192941 998.534674,687.279103 983.180927,696.875092"/>
    <poly id="355135966" type="leisure" color="207,245,201" fill="1" layer="-2.00" shape="976.952396,725.837189 967.260574,710.816477 982.278492,701.225071 991.961222,716.245923 976.952396,725.837189"/>
    <poly id="355135967" type="leisure" color="207,245,201" fill="1" layer="-2.00" shape="1001.018007,685.680813 991.289428,670.627300 1006.360979,660.968640 1016.089541,676.022169 1001.018007,685.680813"/>
    <poly id="355135968" type="leisure" color="207,245,201" fill="1" layer="-2.00" shape="994.525310,714.579960 984.907328,699.646964 1000.105268,689.942182 1009.723081,704.864102 994.525310,714.579960"/>
    <poly id="355135970" type="leisure" color="207,245,201" fill="1" layer="-2.00" shape="1008.815876,659.281994 1014.051170,655.815487 1017.498942,660.993224 1012.272726,664.459605 1008.815876,659.281994"/>
    <poly id="355135972" type="leisure" color="207,245,201" fill="1" layer="-2.00" shape="978.423161,655.794382 987.425467,669.515533 979.361992,674.585088 975.546248,668.391810 978.423161,655.794382"/>
    <poly id="355135974" type="leisure" color="207,245,201" fill="1" layer="-2.00" shape="996.000990,638.934843 986.426943,623.901399 1001.563621,614.352777 1011.128576,629.386361 996.000990,638.934843"/>
    <poly id="355135975" type="leisure" color="207,245,201" fill="1" layer="-2.00" shape="1002.412970,688.113338 1007.784375,684.644958 1011.345157,690.120667 1005.973754,693.589046 1002.412970,688.113338"/>
    <poly id="355135977" type="leisure" color="207,245,201" fill="1" layer="-2.00" shape="988.178474,743.521486 978.467167,728.401188 993.602436,718.763814 1003.322802,733.884003 988.178474,743.521486"/>
    <poly id="355135978" type="leisure" color="207,245,201" fill="1" layer="-2.00" shape="967.349051,723.206780 970.247398,721.425283 965.120811,712.975831 964.034507,717.816454 967.349051,723.206780"/>
    <poly id="355135979" type="leisure" color="207,245,201" fill="1" layer="-2.00" shape="989.682679,667.975813 979.953454,652.877945 995.025329,643.241450 1004.763765,658.350301 989.682679,667.975813"/>
    <poly id="355135980" type="leisure" color="207,245,201" fill="1" layer="-2.00" shape="966.457570,707.865522 981.407459,698.607856 971.880562,684.361424 969.993197,692.341434 973.805585,698.290697 967.472733,702.471198 966.457570,707.865522"/>
    <poly id="356298978" type="water" color="181,209,209" fill="1" layer="-4.00" shape="899.008330,485.434172 900.901714,477.232194 939.802323,486.138389 937.908906,494.340357 899.008330,485.434172"/>
    <poly id="356303934" type="building" color="255,230,230" fill="1" layer="-1.00" shape="677.336038,904.470102 672.555975,897.469297 681.000609,891.761867 685.780668,898.762677 677.336038,904.470102"/>
    <poly id="36073763" type="landuse" color="194,194,130" fill="1" layer="-3.00" shape="-9.737008,611.643432 -17.442151,595.353728 -21.093447,577.488082 -35.465907,587.094453 -54.528009,601.524950 -79.165151,623.698398 -101.450285,648.557275 -114.540096,666.211077 -136.894814,701.099654 -145.797457,715.001309 -146.936972,716.614584 -113.903537,742.293431 -100.543132,756.629888 -76.976034,775.850397 -66.219180,785.064429 -55.280918,798.203103 -44.267221,814.169619 -36.835766,827.090628 -28.893367,840.858777 -24.357453,848.539323 -20.186720,856.724140 -7.111146,875.424463 3.463334,887.214816 14.349484,896.604646 39.238396,913.654981 44.915197,917.204037 279.441549,1066.177139 289.618891,1064.372528 310.205829,1034.856557 201.530781,965.991116 201.509290,961.809120 153.859467,948.290164 103.067930,926.827506 78.751620,911.788117 47.551608,891.918475 22.572327,876.211695 0.722021,862.292114 -12.168398,851.720842 -43.111764,800.597211 -57.026606,774.398176 -91.861893,709.051102 -99.836035,695.627345 -106.181407,683.146174 -109.332300,674.547894 -107.645070,665.949147 -103.138813,660.994431 -101.686733,660.319791 -100.632742,659.739415 -99.514609,659.202526 -98.729501,658.869934 -98.204970,658.729545 -95.899643,658.054180 -93.136243,657.683091 -89.741423,658.334964 -86.542884,659.233617 -82.971046,661.524896 -79.701345,665.595342 -57.794181,704.552264 -48.603269,719.323722 -45.009543,725.164671 10.334328,829.488345 17.418654,837.666131 29.815378,834.865372 36.538073,837.246213 47.240210,843.831944 51.437796,851.994233 52.852624,856.500852 52.878633,861.004502 86.304594,881.675394 88.573074,877.683592 145.363156,914.128367 141.731672,918.671494 193.442960,937.070913 194.343574,929.991833 92.574515,829.016012 94.586073,826.791651 41.560912,773.854330 13.402805,679.338111 -9.737008,611.643432"/>
    <poly id="36073768" type="tourism" color="207,245,201" fill="1" layer="-2.00" shape="245.877088,688.492945 244.659634,670.671245 245.616724,661.760951 246.087562,659.047607 249.629645,655.249037 272.150480,659.220093 287.080484,661.709646 328.563070,663.022785 357.918485,661.042283 375.086572,658.642095 407.315280,653.726676 411.203977,658.598584 437.376736,654.232754 491.531040,616.045088 489.296653,611.993452 542.407670,576.449679 544.938169,580.253189 556.365233,572.263649 561.332561,579.661189 508.302965,615.847153 547.265821,669.457950 396.032291,770.819976 383.232087,750.972656 449.775835,705.547120 430.087766,677.263759 435.366686,673.685367 434.222401,667.721702 412.698073,670.836397 408.453580,678.993281 376.533061,688.475009 356.390425,693.700746 347.213432,695.014430 333.989318,695.762750 310.016265,696.393252 287.212981,694.966441 272.852257,693.600575 255.470753,690.401641 245.877088,688.492945"/>
    <poly id="36238131" type="tourism" color="207,245,201" fill="1" layer="-2.00" shape="396.187410,998.480737 425.288238,970.888796 497.111735,1016.202898 525.989398,996.768164 589.978836,953.797220 689.959247,885.148790 725.199138,935.516746 777.840719,899.581401 783.717424,907.787469 731.128268,944.232364 681.730872,977.771499 657.768998,980.475449 636.151377,985.332615 616.038532,992.021737 593.890521,1001.201721 576.802926,1010.056880 557.886505,1022.542695 539.825887,1035.870963 526.577336,1047.979201 507.970457,1069.080588 396.187410,998.480737"/>
    <poly id="363854124" type="tourism" color="207,245,201" fill="1" layer="-2.00" shape="339.999223,925.960811 343.246839,931.740120 348.056685,936.277569 349.703324,940.492595 354.875237,940.354641 354.740672,935.209066 359.942833,924.110216 357.834425,903.538495 354.468984,897.771900 349.772047,892.866800 348.679001,893.247978 348.227915,887.529905 342.633570,887.973220 343.238355,895.619459 338.329073,901.633403 337.445002,907.946776 339.999223,925.960811"/>
    <poly id="37092453" type="tourism" color="207,245,201" fill="1" layer="-2.00" shape="852.294471,408.021810 852.668582,404.200480 856.961017,379.680156 868.662913,330.885115 875.681053,307.858259 883.161237,286.744248 887.511792,275.690741 893.189440,262.122949 903.861846,244.082391 897.856843,238.451710 900.288560,226.481623 900.348454,213.002118 898.378365,202.412645 897.109013,198.558431 895.326770,193.712844 916.187924,180.557704 908.629175,168.214567 911.545085,166.377351 924.106770,141.798950 933.506878,135.535091 930.649939,131.092534 948.682461,119.507244 943.540131,111.257697 965.651688,97.253496 970.892532,106.067473 998.866017,88.588239 1028.277321,134.855126 1053.841235,118.407554 1057.123675,123.432269 1062.217758,136.774480 1069.303648,147.748626 1062.971265,151.995593 1099.179486,204.759008 1102.857133,202.201419 1092.572947,187.033384 1110.998195,174.954920 1164.093402,251.781858 1147.352195,262.871987 1140.214363,252.730514 1141.126510,251.065066 1139.636961,250.342224 1135.777500,258.837344 1127.398145,271.354851 1123.483791,275.845956 1121.572299,278.113070 1117.803012,282.591095 1114.004828,286.947490 1110.045665,290.817977 1105.396899,294.709019 1097.791929,301.469473 1092.327626,306.126072 1090.688197,303.741261 1082.513647,309.344718 1083.911021,311.289107 1078.219021,315.227758 1072.010012,319.195693 1068.645758,320.772765 1065.197540,322.184586 1058.000847,324.956886 1055.272604,325.915090 1052.488233,326.752036 1049.495577,327.625121 1046.457086,328.465556 1042.484402,329.363187 1040.693284,329.154804 1038.897142,328.580403 1037.423921,327.724231 1036.230374,326.742192 1035.288816,325.601384 1034.610911,324.490239 1034.187432,323.397788 1034.036833,322.345967 1034.066989,321.236197 1034.253412,320.268499 1034.497181,319.510791 1034.777863,318.796951 1035.141139,318.148538 1035.488396,317.655656 1035.882097,317.239791 1036.630056,316.841250 1037.419495,316.819322 1038.050594,317.165655 1038.888361,318.019454 1039.453399,318.843716 1040.101336,319.755589 1040.304808,320.030136 1041.424779,320.281011 1042.964308,320.015824 1044.637386,319.560214 1046.292009,319.082670 1048.921485,318.203474 1051.687403,317.344594 1059.660354,314.251017 1063.754571,312.286745 1068.103216,310.341170 1083.280837,301.746200 1088.430279,297.959212 1092.641368,293.264336 1090.632210,290.396480 1096.108185,285.928311 1094.564533,283.908272 1099.093794,279.907928 1096.616041,277.290557 1099.568849,271.525777 1101.114210,268.376196 1102.817763,264.847264 1104.244075,261.621662 1106.566303,256.209434 1108.485341,249.859785 1110.834746,241.795827 1112.126290,234.700424 1113.136332,227.597789 1114.287848,226.838727 1120.118037,223.042424 1108.505680,206.339491 1098.878638,212.606278 1050.219704,140.932794 945.400361,208.367376 988.195697,277.391807 1000.310827,270.536059 1004.649782,278.463856 987.450788,287.929825 980.128917,291.502642 975.164408,294.211079 971.002440,297.851450 968.388993,301.881021 966.459125,306.111983 964.672781,314.844961 969.726786,343.774132 969.744580,346.391969 968.895915,348.711084 967.496463,350.582928 966.068959,351.734074 890.959446,397.772452 868.011669,411.633063 863.380945,411.541398 863.599463,409.608114 852.294471,408.021810"/>