<?xml version="1.0" encoding="UTF-8"?>

<!-- generated on 2021-07-11 09:36:45 by Eclipse SUMO netedit Version 1.9.2
<configuration xmlns:xsi="http://www.w3.org/2001/XMLSchema-instance" xsi:noNamespaceSchemaLocation="http://sumo.dlr.de/xsd/netconvertConfiguration.xsd">

    <input>
        <sumo-net-file value="minatomirai.net.xml"/>
    </input>

    <output>
        <output-file value="minatomirai.net.xml"/>
    </output>

    <processing>
        <geometry.min-radius.fix.railways value="false"/>
        <geometry.max-grade.fix value="false"/>
        <offset.disable-normalization value="true"/>
        <lefthand value="false"/>
    </processing>

    <junctions>
        <no-turnarounds value="true"/>
        <junctions.corner-detail value="5"/>
        <junctions.limit-turn-speed value="5.5"/>
        <rectangular-lane-cut value="false"/>
    </junctions>

    <pedestrian>
        <walkingareas value="false"/>
    </pedestrian>

    <netedit>
        <route-files value="minatomirai.rou.xml"/>
    </netedit>

    <report>
        <aggregate-warnings value="5"/>
    </report>

</configuration>
-->

<routes xmlns:xsi="http://www.w3.org/2001/XMLSchema-instance" xsi:noNamespaceSchemaLocation="http://sumo.dlr.de/xsd/routes_file.xsd">
    <vehicle id="0" depart="0.00">
        <route edges="328071941#3 220878905#0 26642984#0 26642984#1 26642984#2 328071948#0 328071948#1 -25944235#1" color="yellow"/>
    </vehicle>
    <vehicle id="1" depart="1.00">
        <route edges="220880598#1 220880598#2 328071944#0 328071944#1 25758205 36114184#0 36114184#1 -832563178#2 -832563178#1 -832563178#0" color="yellow"/>
    </vehicle>
    <vehicle id="2" depart="2.00">
        <route edges="72968484#1 72968484#2 72968484#3 72968484#4 72968484#5 72968484#6 72968484#7 72968484#8 -25944232 328071949#0 328071949#1 328071949#2 328071949#3 328071949#4 328071949#5" color="yellow"/>
    </vehicle>
    <vehicle id="3" depart="3.00">
        <route edges="79063721#1 -79063721#1 -79063721#0 257422336#2 25944249 25944233#0 25944233#1 328071940 328071938 26642984#3 328071943#0 328071943#1 328071943#2 25944247 25944234#0 25997890#0 25997890#1 25997890#2 25997890#3 -305808696#1 -305808696#0 -26642973#3 -26642973#2 -26642973#1 -26642973#0" color="yellow"/>
    </vehicle>
    <vehicle id="4" depart="4.00">
        <route edges="25997869#2 25997869#3 -25997869#3 -25997869#2 -25997869#1 -25997869#0" color="yellow"/>
    </vehicle>
    <vehicle id="5" depart="5.00">
        <route edges="220878903#0 220878903#1 220878903#2 25831182 36114181#0 36114181#1 25944232 328071937#0 328071937#1 328071937#2 328071937#3 328071937#4 328071937#5 328071938 26642984#3 328071943#0 328071943#1 328071943#2 25944247 25944234#0 25997890#0 25997890#1 25997890#2 25997890#3 -305808696#1 -305808696#0 -26642973#3 -26642973#2 26642968#1" color="yellow"/>
    </vehicle>
    <vehicle id="6" depart="6.00">
        <route edges="-25997869#0 25997895 84837021 829635609#0 829635609#1 84837019#0 84837019#1 84837019#2 220880598#0 220880598#1 220880598#2 328071944#0 328071944#1 25758205 36114184#0 36114184#1 -832563178#2 -832563178#1 -832563178#0" color="yellow"/>
    </vehicle>
    <vehicle id="7" depart="7.00">
        <route edges="328071942#1 220880591 220878905#0 26642984#0 26642984#1 26642984#2 26642984#3 328071943#0 328071943#1 328071943#2 25944247 25944234#0 25997890#0 25997890#1 25997890#2 25997890#3 305808696#2" color="yellow"/>
    </vehicle>
    <vehicle id="8" depart="8.00">
        <route edges="220878903#0 220878903#1 220878903#2 25831182 36114181#0 36114181#1 328071941#0 328071941#1 328071941#2" color="yellow"/>
    </vehicle>
    <vehicle id="9" depart="9.00">
        <route edges="78995787 72970883 72970878 328071941#3 26642985#0 26642985#1 220878906 220878908#0 220878908#1 -220878908#1" color="yellow"/>
    </vehicle>
    <vehicle id="10" depart="10.00">
        <route edges="78995787 72970883 72970878 328071941#3 220878905#0 26642984#0 84837019#2 220880598#0 220880598#1 220880598#2 328071944#0 328071944#1 25758205 36114184#0 36114184#1 36114184#2" color="yellow"/>
    </vehicle>
    <vehicle id="11" depart="11.00">
        <route edges="25831182 36114181#0 36114181#1 328071941#0 328071941#1 328071941#2 328071941#3 26642985#0 26642985#1 220878906 220878908#0 220878908#1 220878908#2 72977537#0 72977537#1 72977537#2 -72977537#2" color="yellow"/>
    </vehicle>
    <vehicle id="12" depart="12.00">
        <route edges="832563178#0 832563178#1 832563178#2 832563178#3 220878903#1 220878903#2 25831182 36114181#0 36114181#1 25944232 328071937#0 328071937#1 328071937#2 328071937#3 328071937#4 328071937#5 328071938 26642984#3 328071943#0 328071943#1 328071943#2 25944247 25944234#0 25944234#1 25944234#2 25944234#3 257422335#0 257422335#1 257422335#2" color="yellow"/>
    </vehicle>
    <vehicle id="13" depart="13.00">
        <route edges="-305808696#2" color="yellow"/>
    </vehicle>
    <vehicle id="14" depart="14.00">
        <route edges="78995787 72970883 72970878 328071941#3 220878905#0 26642984#0 26642984#1 26642984#2 26642984#3 328071939 328071940 328071942#0 328071942#1" color="yellow"/>
    </vehicle>
    <vehicle id="15" depart="15.00">
        <route edges="78995787 72970883 72970878 328071941#3 220878905#0 26642984#0 84837019#2 220880598#0 -72970877 -72970881 724084571" color="yellow"/>
    </vehicle>
    <vehicle id="16" depart="16.00">
        <route edges="26642984#1 26642984#2 328071948#0 328071948#1 -25944235#1 -25944235#0 84837019#0 84837019#1" color="yellow"/>
    </vehicle>
    <vehicle id="17" depart="17.00">
        <route edges="25944235#1 328071945#0 328071945#1 328071945#2 328071939 72968484#0 72968484#1 72968484#2 72968484#3 72968484#4 72968484#5 72968484#6 72968484#7 72968484#8 328071937#0 328071937#1 328071937#2" color="yellow"/>
    </vehicle>
    <vehicle id="18" depart="18.00">
        <route edges="78995787 72970883 72970878 328071941#3 220878905#0 26642984#0 84837019#2 220880598#0 220880598#1 220880598#2 328071944#0 328071944#1" color="yellow"/>
    </vehicle>
    <vehicle id="19" depart="19.00">
        <route edges="78995787 72970883 72970878 328071941#3 220878905#0 26642984#0 84837019#2 220880598#0 220880598#1 220880598#2 328071937#0 328071937#1 328071937#2 328071937#3 328071937#4" color="yellow"/>
    </vehicle>
    <vehicle id="20" depart="20.00">
        <route edges="328071949#3 328071949#4 328071949#5 328071949#6 220878906 72981296#0 72981296#1 26642984#0 26642984#1 26642984#2 26642984#3 328071943#0 328071943#1 328071943#2 25944247 25944234#0 25997890#0 25997890#1 25997890#2 25997890#3 -305808696#1 -305808696#0 -25997869#3 -25997869#2 -25997869#1" color="yellow"/>
    </vehicle>
    <vehicle id="21" depart="21.00">
        <route edges="220878905#1 220880600#0 220880600#1 829635608 84837019#0 84837019#1 84837019#2 220880598#0 220880598#1" color="yellow"/>
    </vehicle>
    <vehicle id="22" depart="22.00">
        <route edges="-25998651#1 -25998651#0 -220878908#2 -220878908#1 -220878908#0 72981296#0 72981296#1 26642984#0 26642984#1 26642984#2 26642984#3 328071943#0 328071943#1 328071943#2 25944247 25944234#0 25944234#1 25944234#2 25944234#3 257422335#0 257422335#1 -88530098#1 -88530098#0" color="yellow"/>
    </vehicle>
    <vehicle id="23" depart="23.00">
        <route edges="-328071949#3 -328071949#2 -328071949#1 -328071949#0 328071941#0 328071941#1 328071941#2 328071941#3 220878905#0 26642984#0 84837019#2 220880598#0 220880598#1" color="yellow"/>
    </vehicle>
    <vehicle id="24" depart="24.00">
        <route edges="328071941#2 328071941#3 220878905#0 26642984#0 84837019#2 220880598#0 220880598#1 220880598#2 328071944#0 328071944#1 25758205" color="yellow"/>
    </vehicle>
    <vehicle id="25" depart="25.00">
        <route edges="25944234#2 25944234#3 -26642971 257422336#0 257422336#1 257422336#2 25944249 25944233#0 25944233#1 328071940 328071942#0 328071942#1 220880598#0 220880598#1 220880598#2 328071944#0 328071944#1 25758205 36114184#0 36114184#1 -832563178#2 -832563178#1 -832563178#0" color="yellow"/>
    </vehicle>
    <vehicle id="26" depart="26.00">
        <route edges="220880598#1 220880598#2 -25944232 328071941#0 328071941#1 328071941#2 328071941#3 220878905#0 220878905#1 220880600#0 220880600#1 328071947#0 328071947#1 328071947#2 84837020 84837018" color="yellow"/>
    </vehicle>
    <vehicle id="27" depart="27.00">
        <route edges="328071942#1 220880591 220878905#0 26642984#0 26642984#1 26642984#2 26642984#3 328071943#0 328071943#1" color="yellow"/>
    </vehicle>
    <vehicle id="28" depart="28.00">
        <route edges="-79063721#0 257422336#2 25944249 25944233#0 25944233#1 328071940 328071942#0 328071942#1 220880598#0 -72970877 -72970881 724084571" color="yellow"/>
    </vehicle>
    <vehicle id="29" depart="29.00">
        <route edges="-72981432#2 -72981432#1 -72981432#0 -829635611 -328071949#6 -328071949#5 -328071949#4 -328071949#3 -328071949#2 -328071949#1 -328071949#0 25944232" color="yellow"/>
    </vehicle>
    <vehicle id="30" depart="30.00">
        <route edges="84837021 829635609#0 829635609#1 -829635608 328071947#0 328071947#1" color="yellow"/>
    </vehicle>
    <vehicle id="31" depart="31.00">
        <route edges="283907965#0 222974798#0 222974798#1 -79063721#7 -79063721#6 -79063721#5 -79063721#4 -79063721#3 -79063721#2 -79063721#1 -79063721#0 257422336#2 25944249 25944233#0 25944233#1 328071940 328071942#0 328071942#1 220880598#0 220880598#1 220880598#2 328071944#0 328071944#1 25758205 36114184#0 36114184#1 832563178#3 220878903#1 220878903#2 25831182 36114181#0" color="yellow"/>
    </vehicle>
    <vehicle id="32" depart="32.00">
        <route edges="78995787 72970883 72970878 328071941#3 220878905#0 26642984#0 84837019#2 220880598#0 -72970877 -72970881 724084571" color="yellow"/>
    </vehicle>
    <vehicle id="33" depart="33.00">
        <route edges="220878905#1 220880600#0 220880600#1 829635608 25944235#0 25944235#1 328071945#0 328071945#1 328071945#2 328071943#0 328071943#1 328071943#2 25944247 25944234#0 25997890#0 25997890#1 25997890#2 25997890#3 -305808696#1 -305808696#0 -25997869#3 -25997869#2 -25997869#1 -25997869#0" color="yellow"/>
    </vehicle>
    <vehicle id="34" depart="34.00">
        <route edges="257422336#2 25944249 25944233#0 25944233#1 328071940 328071942#0 328071942#1 220880591" color="yellow"/>
    </vehicle>
    <vehicle id="35" depart="35.00">
        <route edges="-88530098#0 26642973#1 26642973#2 26642973#3 -25997869#3 -25997869#2 -25997869#1 -25997869#0 25997895 84837021 829635609#0 829635609#1 -829635608 328071947#0 328071947#1 328071947#2 84837020 84837018" color="yellow"/>
    </vehicle>
    <vehicle id="37" depart="37.00">
        <route edges="328071943#1 328071943#2 25944247 25944234#0 25944234#1" color="yellow"/>
    </vehicle>
    <vehicle id="38" depart="38.00">
        <route edges="79063721#6 -79063721#6 -79063721#5 -79063721#4 -79063721#3 -79063721#2 -79063721#1 -79063721#0 257422336#2 25944249 25944233#0 25944233#1 328071940 328071938 26642984#3 328071943#0 328071943#1 328071943#2 25944247 25944234#0 25997890#0 25997890#1" color="yellow"/>
    </vehicle>
    <vehicle id="39" depart="39.00">
        <route edges="220880598#1 220880598#2 -25944232 328071941#0 328071941#1 328071941#2 328071941#3 220878905#0 220878905#1" color="yellow"/>
    </vehicle>
    <vehicle id="40" depart="40.00">
        <route edges="283907965#0 222974798#0 222974798#1 -79063721#7 -79063721#6 -79063721#5 -79063721#4 -79063721#3 -79063721#2 -79063721#1 -79063721#0 257422336#2 25944249 25944233#0 25944233#1 328071940 328071942#0 328071942#1 220880591 26642985#0 26642985#1 220878906 220878908#0 220878908#1 220878908#2" color="yellow"/>
    </vehicle>
    <vehicle id="42" depart="42.00">
        <route edges="25997869#0 25997869#1 25997869#2 25997869#3 305808696#0 305808696#1 305808696#2 305808696#3 -26642971 257422336#0 257422336#1 257422336#2 25944249 25944233#0 25944233#1 328071940 328071942#0 328071942#1 220880598#0 220880598#1 220880598#2 328071944#0 328071944#1 25758205 36114184#0 36114184#1 -832563178#2 -832563178#1 -832563178#0" color="yellow"/>
    </vehicle>
    <vehicle id="43" depart="43.00">
        <route edges="88530098#0 88530098#1 -88530098#1 -88530098#0 26642973#1 26642973#2" color="yellow"/>
    </vehicle>
    <vehicle id="44" depart="44.00">
        <route edges="-305808696#2 -305808696#1 -305808696#0 -25997869#3 -25997869#2 -25997869#1" color="yellow"/>
    </vehicle>
    <vehicle id="45" depart="45.00">
        <route edges="-328071949#4 328071949#4 328071949#5 328071949#6 220878906 72981296#0 72981296#1 26642984#0 26642984#1 26642984#2 328071948#0 328071948#1 328071945#0" color="yellow"/>
    </vehicle>
    <vehicle id="46" depart="46.00">
        <route edges="72981296#1 26642984#0 26642984#1 26642984#2 26642984#3 328071943#0 328071943#1 328071943#2 25944247 25944234#0 25944234#1 25944234#2 25944234#3 -26642971 257422336#0 257422336#1 257422336#2 25944249" color="yellow"/>
    </vehicle>
    <vehicle id="47" depart="47.00">
        <route edges="-25997889#0 25997890#2 25997890#3 305808696#2 305808696#3 -26642971 257422336#0 257422336#1 257422336#2 25944249 25944233#0" color="yellow"/>
    </vehicle>
    <vehicle id="48" depart="48.00">
        <route edges="88530098#0 88530098#1 -88530098#1 -88530098#0 26642973#1 26642973#2 26642973#3 305808696#0 305808696#1 305808696#2 305808696#3 -26642971 257422336#0 257422336#1 79063721#0 79063721#1 79063721#2 79063721#3 79063721#4 79063721#5 79063721#6 283907976#1" color="yellow"/>
    </vehicle>
    <vehicle id="49" depart="49.00">
        <route edges="84837019#1 84837019#2 220880591 26642985#0 26642985#1 220878906 220878908#0 220878908#1 220878908#2 72977537#0 72977537#1 72977537#2" color="yellow"/>
    </vehicle>
</routes>
