<?xml version="1.0" encoding="UTF-8"?>
<!-- 
 This file is made available under the Open Database License: http://opendatacommons.org/licenses/odbl/1.0/. 
 Any rights in individual contents of the database are licensed under the 
 Database Contents License: http://opendatacommons.org/licenses/dbcl/1.0/.
-->
<!-- generated on 2023-01-06 11:32:59 by Eclipse SUMO netedit Version 1.12.0
<configuration xmlns:xsi="http://www.w3.org/2001/XMLSchema-instance" xsi:noNamespaceSchemaLocation="http://sumo.dlr.de/xsd/netconvertConfiguration.xsd">

    <input>
        <sumo-net-file value="D:\NICT\MM2ITS2\Plugins\SumoCoSimulation\Content\Python\Bignetwork%20area\selectednetnew.net.xml"/>
    </input>

    <output>
        <output-file value="D:\NICT\MM2ITS2\Plugins\SumoCoSimulation\Content\Python\Bignetwork%20area\selectednetnew.net.xml"/>
    </output>

    <processing>
        <geometry.min-radius.fix.railways value="false"/>
        <geometry.max-grade.fix value="false"/>
        <offset.disable-normalization value="true"/>
        <lefthand value="false"/>
    </processing>

    <junctions>
        <no-turnarounds value="true"/>
        <junctions.corner-detail value="5"/>
        <junctions.limit-turn-speed value="5.5"/>
        <rectangular-lane-cut value="false"/>
    </junctions>

    <pedestrian>
        <walkingareas value="false"/>
    </pedestrian>

    <netedit>
        <additional-files value="D:\NICT\MM2ITS2\Plugins\SumoCoSimulation\Content\Python\Bignetwork%20area\selectednew.poly.xml"/>
    </netedit>

    <report>
        <aggregate-warnings value="5"/>
    </report>

</configuration>
-->

<additional xmlns:xsi="http://www.w3.org/2001/XMLSchema-instance" xsi:noNamespaceSchemaLocation="http://sumo.dlr.de/xsd/additional_file.xsd">
    <poly id="1012811409" type="unknown" color="51,128,255" fill="0" layer="-1.00" shape="1953.575298,1000.738747 1951.685984,1001.973993 1948.995930,1003.730582"/>
    <poly id="1012811410" type="unknown" color="51,128,255" fill="0" layer="-1.00" shape="1948.001109,1007.294242 1950.340730,1011.067088 1952.290132,1014.190792"/>
    <poly id="1012811411" type="unknown" color="51,128,255" fill="0" layer="-1.00" shape="1976.423196,1054.016908 1978.375944,1057.384630 1980.291468,1060.686303"/>
    <poly id="1012811412" type="unknown" color="51,128,255" fill="0" layer="-1.00" shape="1982.307209,1061.379605 1986.188103,1059.085215 1988.835517,1057.528908"/>
    <poly id="1012811413" type="unknown" color="51,128,255" fill="0" layer="-1.00" shape="1989.595899,1054.079419 1987.841701,1051.285824 1984.398209,1045.797585"/>
    <poly id="1012811414" type="unknown" color="51,128,255" fill="0" layer="-1.00" shape="1984.398209,1045.797585 1979.564115,1048.748540 1976.692397,1050.496532"/>
    <poly id="1051123119" type="unknown" color="51,128,255" fill="0" layer="-1.00" shape="832.694954,2501.145740 831.301872,2509.307878 828.817239,2523.819691 829.439508,2562.661050 830.223415,2564.857780 831.699269,2566.556758 833.907349,2567.391333"/>
    <poly id="1051123120" type="unknown" color="51,128,255" fill="0" layer="-1.00" shape="966.142593,2187.591083 960.273102,2196.303537"/>
    <poly id="1051123121" type="unknown" color="51,128,255" fill="0" layer="-1.00" shape="1005.460205,2126.661884 1001.843444,2132.236782"/>
    <poly id="1072661933" type="building" color="255,230,230" fill="1" layer="2.00" shape="1661.874347,813.278085 1665.197944,810.725012 1669.255688,815.971687 1665.941169,818.524633 1661.874347,813.278085"/>
    <poly id="1072661934" type="building" color="255,230,230" fill="1" layer="2.00" shape="1635.377740,828.542922 1641.522746,821.258258 1648.360707,830.615508 1640.340231,836.195485 1635.377740,828.542922"/>
    <poly id="1072661935" type="building" color="255,230,230" fill="1" layer="2.00" shape="1626.091356,843.680899 1638.483339,835.178348 1634.819390,830.181397 1625.140251,842.518123 1626.091356,843.680899"/>
    <poly id="1072661936" type="parking" color="184,184,179" fill="1" layer="-2.00" shape="1663.047215,833.119413 1675.040110,848.950680 1679.864875,845.322981 1667.871985,829.491708 1663.047215,833.119413"/>
    <poly id="1072661937" type="parking" color="184,184,179" fill="1" layer="-2.00" shape="1618.430502,837.840614 1653.099780,794.506935 1651.658706,793.362020 1616.980200,836.684739 1618.430502,837.840614"/>
    <poly id="1072661938" type="unknown" color="51,128,255" fill="0" layer="-1.00" shape="1658.338723,793.258625 1631.453502,829.673234 1619.022352,846.507626"/>
    <poly id="1072661939" type="parking" color="184,184,179" fill="1" layer="-2.00" shape="1617.426324,830.211006 1649.262746,792.751699 1648.022729,791.703849 1641.531417,798.893450 1637.178706,800.551079 1616.620684,827.093747 1616.345818,829.538138 1617.426324,830.211006"/>
    <poly id="1072661940" type="building" color="255,230,230" fill="1" layer="2.00" shape="1668.779306,829.456985 1675.380672,838.118627 1677.168615,836.773789 1670.567251,828.112145 1668.779306,829.456985"/>
    <poly id="1082813814" type="unknown" color="51,128,255" fill="0" layer="-1.00" shape="1659.747583,766.448131 1662.048976,763.498718"/>
    <poly id="1082813815" type="unknown" color="51,128,255" fill="0" layer="-1.00" shape="1646.675953,781.616195 1645.800727,782.659993"/>
    <poly id="1083135527" type="unknown" color="51,128,255" fill="0" layer="-1.00" shape="1848.661142,1315.757046 1849.596147,1315.100716 1845.834549,1309.583636"/>
    <poly id="1083135528" type="unknown" color="51,128,255" fill="0" layer="-1.00" shape="1714.249921,1313.752128 1707.875924,1314.295014 1707.903656,1316.302572"/>
    <poly id="1083712401" type="unknown" color="51,128,255" fill="0" layer="-1.00" shape="1623.716377,912.238872 1631.723590,905.705011 1633.239308,908.967767"/>
    <poly id="1083712402" type="unknown" color="51,128,255" fill="0" layer="-1.00" shape="1610.284792,873.763338 1606.598456,867.147042 1614.958841,868.429272"/>
    <poly id="1083758691" type="unknown" color="51,128,255" fill="0" layer="-1.00" shape="1874.935510,1261.435315 1876.858662,1259.367564"/>
    <poly id="1083758711" type="unknown" color="51,128,255" fill="0" layer="-1.00" shape="1475.194961,2075.239724 1469.732823,2083.912901"/>
    <poly id="1083937727" type="unknown" color="51,128,255" fill="0" layer="-1.00" shape="1752.093211,870.583968 1746.287433,874.169705"/>
    <poly id="1083937728" type="unknown" color="51,128,255" fill="0" layer="-1.00" shape="1755.699994,1297.471128 1752.613494,1296.803758 1752.517572,1293.144196"/>
    <poly id="1083937730" type="unknown" color="51,128,255" fill="0" layer="-1.00" shape="1629.966928,802.902745 1632.198529,804.757815 1647.084287,783.574118"/>
    <poly id="1083937731" type="unknown" color="51,128,255" fill="0" layer="-1.00" shape="1625.827153,832.446737 1629.542029,827.991237 1631.453502,829.673234"/>
    <poly id="1084539158" type="unknown" color="51,128,255" fill="0" layer="-1.00" shape="1651.076522,881.308991 1646.361042,884.302862"/>
    <poly id="1084539159" type="unknown" color="51,128,255" fill="0" layer="-1.00" shape="1672.123225,926.934575 1669.157390,928.439907"/>
    <poly id="1084539160" type="unknown" color="51,128,255" fill="0" layer="-1.00" shape="1679.789851,954.884357 1680.882395,954.458800"/>
    <poly id="1084539161" type="unknown" color="51,128,255" fill="0" layer="-1.00" shape="1716.719401,889.864990 1717.533121,885.682561 1718.448595,880.322806"/>
    <poly id="1084539162" type="unknown" color="51,128,255" fill="0" layer="-1.00" shape="1722.033135,827.645303 1720.636150,832.978426 1720.529222,838.382482"/>
    <poly id="1087733046" type="building" color="255,230,230" fill="1" layer="2.00" shape="1796.959795,757.031890 1799.715674,760.699112 1803.220090,758.088130 1800.464211,754.420906 1796.959795,757.031890"/>
    <poly id="1087733047" type="tourism" color="207,245,201" fill="1" layer="-10.00" shape="1818.026861,755.487582 1828.326568,769.678372 1853.729032,751.400673 1849.972116,746.238517 1859.653107,739.271320 1853.101266,730.242777 1818.026861,755.487582"/>
    <poly id="1087733048" type="building" color="255,230,230" fill="1" layer="2.00" shape="1767.280391,800.861862 1773.023912,809.202608 1788.546462,798.615838 1788.983000,794.727057 1785.916585,790.265386 1773.208879,798.927392 1772.226732,797.487690 1767.280391,800.861862"/>
    <poly id="1087733049" type="building" color="255,230,230" fill="1" layer="2.00" shape="1761.767817,794.126502 1779.712315,782.086302 1784.169579,788.658742 1773.654750,795.715190 1773.015471,794.781060 1765.585809,799.764804 1761.767817,794.126502"/>
    <poly id="1087733050" type="building" color="255,230,230" fill="1" layer="2.00" shape="1736.686821,823.171913 1741.868129,830.899162 1763.969634,816.183440 1754.144790,801.542421 1749.629066,804.544569 1757.155371,815.767211 1754.024999,817.851651 1751.133319,813.553982 1736.686821,823.171913"/>
    <poly id="1087733051" type="building" color="255,230,230" fill="1" layer="2.00" shape="1712.547694,821.807951 1728.968173,809.855254 1725.489316,805.110865 1709.068679,817.052476 1712.547694,821.807951"/>
    <poly id="1087733052" type="building" color="255,230,230" fill="1" layer="2.00" shape="1706.832157,815.496983 1714.536552,810.032370 1707.723732,800.519414 1702.033121,804.558425 1701.703851,808.323700 1706.832157,815.496983"/>
    <poly id="1087733053" type="building" color="255,230,230" fill="1" layer="2.00" shape="1710.281336,799.030829 1716.898344,808.169309 1724.260456,802.898023 1717.643299,793.748446 1710.281336,799.030829"/>
    <poly id="1087733054" type="building" color="255,230,230" fill="1" layer="2.00" shape="1719.306794,792.593927 1730.851641,808.853009 1737.918378,803.885341 1726.364461,787.626374 1719.306794,792.593927"/>
    <poly id="1087733055" type="building" color="255,230,230" fill="1" layer="2.00" shape="1748.242902,771.870901 1753.265733,768.118481 1763.688008,781.974701 1760.830523,784.099744 1757.917580,780.235017 1755.743007,781.851422 1748.242902,771.870901"/>
    <poly id="1087733056" type="parking" color="184,184,179" fill="1" layer="-2.00" shape="1749.556676,788.781579 1756.809183,782.801845 1761.018578,787.857875 1753.766072,793.837605 1749.556676,788.781579"/>
    <poly id="1097486257" type="unknown" color="51,128,255" fill="0" layer="-1.00" shape="1289.966170,1828.465361 1301.970424,1809.794780 1276.513200,1793.706932 1267.154568,1787.801753"/>
    <poly id="1097486258" type="unknown" color="51,128,255" fill="0" layer="-1.00" shape="1255.228953,1806.903943 1264.384842,1812.590048 1289.966170,1828.465361"/>
    <poly id="1104332274" type="building" color="255,230,230" fill="1" layer="2.00" shape="1664.270189,755.402987 1669.582215,760.099841 1685.386887,741.022396 1691.954867,731.491023 1707.434459,714.503707 1719.210659,702.149216 1746.843818,673.168379 1804.396622,620.999562 1811.577687,618.382223 1807.623613,613.411394 1806.191502,611.600715 1773.219310,640.533018 1751.289572,661.148112 1739.903182,672.154850 1703.265251,710.390101 1680.388855,736.054949 1664.270189,755.402987"/>
    <poly id="1104384051" type="unknown" color="51,128,255" fill="0" layer="-1.00" shape="997.087983,2121.187029 1003.280013,2125.227819"/>
    <poly id="1104384052" type="unknown" color="51,128,255" fill="0" layer="-1.00" shape="997.274685,2120.252568 1003.347354,2124.195174"/>
    <poly id="1104384053" type="unknown" color="51,128,255" fill="0" layer="-1.00" shape="1003.347354,2124.195174 1004.144430,2124.727686 1001.387135,2128.792997 1000.516688,2128.206037"/>
    <poly id="1104384054" type="unknown" color="51,128,255" fill="0" layer="-1.00" shape="1000.516688,2128.206037 994.802261,2124.569077"/>
    <poly id="1104384055" type="unknown" color="51,128,255" fill="0" layer="-1.00" shape="994.802261,2124.569077 993.923201,2124.015517 996.108327,2120.579399 997.087983,2121.187029"/>
    <poly id="1104384056" type="unknown" color="51,128,255" fill="0" layer="-1.00" shape="1003.280013,2125.227819 1005.460205,2126.661884"/>
    <poly id="1104384057" type="unknown" color="51,128,255" fill="0" layer="-1.00" shape="994.853917,2123.714148 993.791661,2123.041104 996.084146,2119.492558 997.274685,2120.252568"/>
    <poly id="1104384058" type="unknown" color="51,128,255" fill="0" layer="-1.00" shape="1000.578344,2127.417531 994.853917,2123.714148"/>
    <poly id="1104384059" type="unknown" color="51,128,255" fill="0" layer="-1.00" shape="1003.939830,2123.721007 1001.619193,2127.203381"/>
    <poly id="1104384060" type="unknown" color="51,128,255" fill="0" layer="-1.00" shape="1001.619193,2127.203381 1001.182996,2127.819593 1000.578344,2127.417531"/>
    <poly id="1104384061" type="unknown" color="51,128,255" fill="0" layer="-1.00" shape="1006.392431,2119.937272 1003.939830,2123.721007"/>
    <poly id="1104384062" type="building" color="255,230,230" fill="1" layer="2.00" shape="2254.254493,1505.294603 2224.186338,1461.444836 2221.704202,1463.131926 2220.064551,1460.736084 2083.414288,1553.673239 2085.933856,1557.343795 2083.056114,1559.302620 2113.884140,1604.250830 2253.214471,1509.535559 2251.556381,1507.117778 2254.254493,1505.294603"/>
    <poly id="1104384063" type="landuse" color="194,194,130" fill="1" layer="-4.00" shape="2217.237721,1453.863676 2054.388538,1564.456662 2088.271514,1615.031525 2109.403654,1619.677143 2280.775857,1501.812574 2289.704787,1464.615074 2217.237721,1453.863676"/>
    <poly id="1104384064" type="building" color="255,230,230" fill="1" layer="2.00" shape="2112.612439,1604.845208 2079.300530,1556.181582 2064.371892,1566.315977 2097.683849,1614.979549 2112.612439,1604.845208"/>
    <poly id="1104384066" type="building" color="255,230,230" fill="1" layer="2.00" shape="2450.306066,930.804853 2440.115025,915.846446 2431.505270,914.899685 2399.943686,936.211204 2403.139855,940.893161 2413.294019,955.807660 2444.684485,934.598377 2450.306066,930.804853"/>
    <poly id="1104384066#1" type="tourism" color="207,245,201" fill="1" layer="2.00" shape="2450.306066,930.804853 2440.115025,915.846446 2431.505270,914.899685 2399.943686,936.211204 2403.139855,940.893161 2413.294019,955.807660 2444.684485,934.598377 2450.306066,930.804853"/>
    <poly id="1104384068" type="landuse" color="194,194,130" fill="1" layer="-4.00" shape="2440.612690,912.422797 2431.644391,911.148152 2396.880997,935.299225 2413.993871,959.836104 2454.464345,932.833352 2440.612690,912.422797"/>
    <poly id="1110949867" type="unknown" color="51,128,255" fill="0" layer="-1.00" shape="2118.398312,1278.115026 2109.646479,1264.191055 2104.195243,1263.190037 2020.340709,1314.199636"/>
    <poly id="1110949868" type="unknown" color="51,128,255" fill="0" layer="-1.00" shape="2124.589027,1274.147042 2116.901123,1259.698112 2117.395956,1255.420271 2186.355133,1212.981134"/>
    <poly id="1110949869" type="unknown" color="51,128,255" fill="0" layer="-1.00" shape="2109.646479,1264.191055 2112.589687,1262.364464 2116.901123,1259.698112"/>
    <poly id="111660414" type="unknown" color="51,128,255" fill="0" layer="-1.00" shape="1374.505010,1455.291345 1370.780000,1464.228934 1370.273862,1467.663873 1370.426404,1470.812348 1371.177424,1477.191870 1380.447916,1550.769471 1380.284951,1554.732151 1378.381488,1558.208633 1375.237925,1560.626213 1370.905948,1561.784490 1360.904820,1563.897703 1353.989228,1565.957085 1348.732003,1567.815996 1343.786406,1571.201513 1337.991078,1576.151915"/>
    <poly id="111660415" type="unknown" color="51,128,255" fill="0" layer="-1.00" shape="1337.991078,1576.151915 1339.397658,1586.604805 1340.505753,1589.928632 1342.244063,1592.877637 1344.237885,1594.613897 1347.106030,1596.559915 1350.999407,1597.815019 1354.042009,1597.939268 1362.166627,1595.352829 1384.652939,1570.590994 1387.363402,1564.429772 1388.552792,1553.963108 1382.392296,1503.062157"/>
    <poly id="111661587" type="unknown" color="51,128,255" fill="0" layer="-1.00" shape="1252.862622,1693.204852 1256.377438,1686.799465 1258.905492,1682.548832 1273.577448,1667.069479 1298.779935,1647.727817 1310.465815,1639.467497 1323.706711,1630.098469 1339.028703,1619.591262 1344.746165,1614.919279 1362.166627,1595.352829"/>
    <poly id="1118053578" type="forest" color="140,196,107" fill="1" layer="-11.00" shape="1374.834852,1740.559267 1359.635094,1733.669924 1357.839382,1735.092600 1352.385083,1735.168171 1350.528046,1732.819866 1350.194158,1728.375948 1350.068754,1719.325287 1350.922256,1710.826838 1351.005683,1706.366045 1351.943411,1703.291211 1355.556208,1701.987575 1357.250525,1703.073463 1372.816024,1726.531612 1377.574136,1736.483241 1374.834852,1740.559267"/>
    <poly id="130990623" type="natural" color="140,196,107" fill="0" layer="2.00" shape="2485.673692,1424.825811 2552.135347,1420.652182 2562.914554,1422.955971 2529.725978,1575.626113 2524.657208,1578.003137 2486.380353,1753.340962 2506.732282,1752.107523 2506.908367,1752.371352 2619.658239,1916.806250 2615.746904,1938.703124 2519.943882,2003.728006 2546.877459,2044.937042 2678.867456,1990.365629 2654.154656,1954.195527 2656.205380,1952.825088"/>
    <poly id="130990758" type="natural" color="140,196,107" fill="0" layer="2.00" shape="2647.115620,1342.138390 2635.915256,1325.673804 2645.495018,1319.274608 2614.352040,1273.729927 2607.612314,1279.380220 2596.838181,1288.047827 2588.786952,1294.703449 2582.766474,1299.844687 2580.754033,1299.384174 2571.070715,1308.158882 2564.819765,1313.702662 2562.925301,1311.254788 2556.391128,1316.003725 2558.249594,1318.474278 2542.847738,1327.926526 2518.192804,1336.485176 2515.028015,1337.382814 2513.339013,1337.339433 2511.573600,1337.019761 2509.940517,1336.420935 2508.302715,1335.478274 2506.953815,1334.420712 2505.866283,1333.226440 2505.021514,1331.862434 2504.392583,1330.351248 2504.098693,1328.779996 2504.097968,1327.404405 2504.289660,1326.159295 2504.662715,1324.900602 2505.497416,1323.546825 2506.464963,1322.612780 2507.879353,1321.827912 2509.146153,1321.533187 2510.337209,1321.672150 2511.584908,1322.631259 2512.488641,1323.661650 2519.279419,1321.738017 2526.063654,1319.337456 2532.598586,1316.629701 2538.767143,1313.682920 2545.179173,1309.956254 2551.215602,1305.979594 2557.257155,1301.714435 2562.688962,1297.335617 2561.983835,1296.224841 2567.592348,1292.154221 2566.117802,1289.878083 2570.604628,1286.754712 2568.232590,1283.902926 2571.110714,1278.649473 2573.724882,1273.344175 2576.255393,1267.895808 2578.415777,1262.596736 2580.735469,1255.675820 2582.775131,1248.192975 2584.094510,1241.141564 2585.148410,1233.927392 2589.322180,1231.141132 2578.238401,1215.251876 2570.833930,1220.090391 2522.432015,1148.624159 2420.249614,1213.737255 2422.823456,1216.075928 2434.038970,1233.605041 2430.279079,1236.119446 2437.620501,1248.509980 2440.490410,1246.629038 2461.997594,1281.189697 2474.962352,1274.067135 2480.597466,1285.160992 2448.215880,1302.856064 2444.139708,1306.794784 2441.297056,1311.981232 2439.826308,1316.594164 2439.634698,1321.810770 2443.785869,1349.776106 2444.071581,1352.734165 2443.501826,1354.871953 2441.892019,1357.290269 2481.378865,1427.380822 2485.673692,1424.825811"/>
    <poly id="130990769" type="natural" color="140,196,107" fill="0" layer="2.00" shape="2319.102011,2120.584621 2305.959340,2132.491254 2242.794854,2033.528869 2219.167099,1999.818839 2192.659924,1960.035927 2155.613776,1986.149869 2139.479677,1989.112121 2123.023530,1991.757122 2105.981205,1995.996612 2064.668154,2012.141106 2050.746412,2018.878143 2038.236656,2027.958681 2014.006747,2046.108929 1999.890154,2059.116618 1983.466543,2077.935903 1868.330999,2005.130276 1857.176369,1997.951336 1751.298725,1931.830856 1666.093809,1944.301409"/>
    <poly id="130990812" type="natural" color="140,196,107" fill="0" layer="2.00" shape="1666.093809,1944.301409 1614.194581,1925.438655 1561.028960,1891.817013 1523.780605,1867.793262 1523.609412,1862.637098 1521.796327,1858.868168 1519.286155,1854.576391 1517.054531,1850.735598 1513.184715,1847.893714 1508.305836,1845.598289 1501.912595,1844.067097 1496.376995,1844.165895 1490.135332,1845.716640 1486.308271,1842.685584 1482.788881,1838.274661 1478.999755,1831.426877 1478.475231,1831.567261 1472.455063,1820.923063 1473.121720,1820.558839 1413.824402,1711.963455 1413.051291,1712.506655 1391.270872,1673.525794 1391.926773,1673.039683 1388.228233,1668.154250 1383.323073,1665.936908 1378.021797,1665.267069 1373.406689,1666.296146 1369.503903,1668.946120 1366.831527,1671.956233 1364.906710,1675.854573 1364.065395,1680.647581 1365.846081,1687.312367 1366.709322,1687.378063 1387.845314,1726.356701 1415.259487,1777.573452 1446.495607,1834.750104 1448.171321,1833.839413 1457.262648,1850.609131 1456.490315,1851.207786 1460.903203,1857.214904 1461.171605,1857.588371 1464.821754,1861.609199 1472.173949,1866.843453 1568.887263,1927.740382 1591.994498,1939.368611 1608.998423,1946.799155 1625.867627,1953.022389 1648.662535,1959.796073 1675.208163,1967.372184 1674.940169,1971.624742 1758.010363,2024.114641"/>
    <poly id="130991833" type="natural" color="140,196,107" fill="0" layer="2.00" shape="2656.205380,1952.825088 2658.705451,1951.126775 2692.552710,2001.437997 2570.326572,2051.837176 2569.960928,2050.987989 2555.512645,2057.076934 2608.297625,2135.438777 2745.829610,2078.673415 2751.375896,2087.316962 2720.670315,2108.571426"/>
    <poly id="130992001" type="natural" color="140,196,107" fill="0" layer="2.00" shape="2720.670315,2108.571426 2618.736533,2177.184905 2495.772430,1995.795119 2492.887198,1997.864855 2378.868955,1830.409267 2293.857962,1888.776348 2361.212819,1988.147426 2405.042290,2052.054283 2405.804981,2051.411470 2408.679429,2055.165980 2409.054621,2056.048312 2408.887598,2057.104496 2374.275221,2080.676942 2322.400342,2118.198525 2319.102011,2120.584621"/>
    <poly id="131284853" type="unknown" color="51,128,255" fill="0" layer="-1.00" shape="682.438923,2477.933461 673.480973,2459.077009"/>
    <poly id="135176137" type="unknown" color="51,128,255" fill="0" layer="-1.00" shape="1141.868963,1895.428532 1161.559376,1907.380444 1172.123583,1913.823464"/>
    <poly id="135176138" type="unknown" color="51,128,255" fill="0" layer="-1.00" shape="1178.103763,1905.209475 1167.518008,1897.868162 1146.732861,1885.520966"/>
    <poly id="135176140" type="unknown" color="51,128,255" fill="0" layer="-1.00" shape="1046.650982,1908.454440 1054.646530,1900.522363 1064.237188,1893.067353 1073.376000,1888.369853 1082.786948,1884.966540 1092.335747,1882.992403 1102.499234,1882.795818 1112.536611,1883.976606 1121.906902,1886.797431 1131.505615,1890.380556 1141.868963,1895.428532"/>
    <poly id="135176142" type="unknown" color="51,128,255" fill="0" layer="-1.00" shape="1101.898927,1788.563680 1060.154825,1831.143871"/>
    <poly id="135176143" type="unknown" color="51,128,255" fill="0" layer="-1.00" shape="1146.732861,1885.520966 1131.747844,1875.789058 1126.711968,1872.652900 1114.940816,1865.583254 1105.389735,1860.856839 1096.657738,1856.939991 1086.615839,1854.128517 1076.998504,1853.130515 1066.645635,1853.418507 1056.099299,1855.461993 1043.608010,1860.594355 1038.072181,1863.943877 1034.155433,1866.882634 1026.021276,1874.639156 1017.835027,1883.871865 969.735544,1949.138582"/>
    <poly id="135240951" type="unknown" color="51,128,255" fill="0" layer="-1.00" shape="1060.154825,1831.143871 1038.378416,1856.584538 1034.952668,1860.237560 1031.054547,1863.863865 1023.319993,1870.982501 1019.229623,1875.143978 1011.476835,1884.215359 1004.089538,1893.459168 966.022331,1946.472250 910.938739,2025.758934 908.698807,2031.780656 908.820068,2041.153107 911.878928,2047.678012 915.861668,2052.104465 944.549728,2072.073527"/>
    <poly id="138101262" type="unknown" color="51,128,255" fill="0" layer="-1.00" shape="1441.087205,1745.044305 1425.629387,1753.600747"/>
    <poly id="138101263" type="unknown" color="51,128,255" fill="0" layer="-1.00" shape="1415.291271,1733.331645 1428.980603,1726.851994"/>
    <poly id="138101264" type="historic" color="128,255,128" fill="1" layer="2.00" shape="1434.605811,1768.619244 1437.925522,1776.305533 1438.552401,1780.279463 1437.226718,1783.526063 1435.054002,1784.598948 1431.410820,1783.706436 1428.401721,1780.752826 1423.691147,1774.228444 1413.503604,1755.654583 1403.604423,1737.587045 1395.154785,1720.630989 1393.798627,1716.434196 1393.300305,1713.223948 1394.241131,1709.716425 1389.199086,1698.925606 1395.944552,1708.838623 1399.807575,1709.872293 1402.116376,1712.070135 1405.130716,1716.055372 1415.291271,1733.331645 1424.287237,1749.758752 1434.605811,1768.619244"/>
    <poly id="138101264#1" type="natural" color="140,196,107" fill="1" layer="2.00" shape="1434.605811,1768.619244 1437.925522,1776.305533 1438.552401,1780.279463 1437.226718,1783.526063 1435.054002,1784.598948 1431.410820,1783.706436 1428.401721,1780.752826 1423.691147,1774.228444 1413.503604,1755.654583 1403.604423,1737.587045 1395.154785,1720.630989 1393.798627,1716.434196 1393.300305,1713.223948 1394.241131,1709.716425 1389.199086,1698.925606 1395.944552,1708.838623 1399.807575,1709.872293 1402.116376,1712.070135 1405.130716,1716.055372 1415.291271,1733.331645 1424.287237,1749.758752 1434.605811,1768.619244"/>
    <poly id="138101264#2" type="tourism" color="207,245,201" fill="1" layer="2.00" shape="1434.605811,1768.619244 1437.925522,1776.305533 1438.552401,1780.279463 1437.226718,1783.526063 1435.054002,1784.598948 1431.410820,1783.706436 1428.401721,1780.752826 1423.691147,1774.228444 1413.503604,1755.654583 1403.604423,1737.587045 1395.154785,1720.630989 1393.798627,1716.434196 1393.300305,1713.223948 1394.241131,1709.716425 1389.199086,1698.925606 1395.944552,1708.838623 1399.807575,1709.872293 1402.116376,1712.070135 1405.130716,1716.055372 1415.291271,1733.331645 1424.287237,1749.758752 1434.605811,1768.619244"/>
    <poly id="138101483" type="unknown" color="51,128,255" fill="0" layer="-1.00" shape="1385.019923,1756.326435 1389.631912,1755.075533 1387.776139,1751.506904 1387.756363,1747.458006"/>
    <poly id="138101484" type="unknown" color="51,128,255" fill="0" layer="-1.00" shape="1387.756363,1747.458006 1403.604423,1737.587045"/>
    <poly id="138101486" type="unknown" color="51,128,255" fill="0" layer="-1.00" shape="1404.794358,1780.247734 1407.738947,1778.542908 1421.182442,1770.047608"/>
    <poly id="155958763" type="unknown" color="51,128,255" fill="0" layer="-1.00" shape="2144.875430,1094.628870 2148.690629,1101.409999 2152.561499,1108.279112 2171.692495,1138.933613 2182.825931,1157.051523 2204.052671,1191.593280 2207.111124,1196.820649 2210.204351,1201.936605 2219.907299,1217.700212 2224.810660,1225.065454"/>
    <poly id="161318439" type="building" color="255,230,230" fill="1" layer="2.00" shape="2247.940604,884.485379 2249.351456,886.740159 2262.231530,878.708802 2260.820833,876.465112 2247.940604,884.485379"/>
    <poly id="161503388" type="building" color="255,230,230" fill="1" layer="2.00" shape="1810.153258,1036.153070 1804.887328,1028.859605 1801.120888,1031.551864 1806.386972,1038.856419 1810.153258,1036.153070"/>
    <poly id="161503389" type="building" color="255,230,230" fill="1" layer="2.00" shape="1854.707448,1101.977776 1862.419171,1097.056766 1860.174271,1093.571069 1852.462546,1098.492081 1854.707448,1101.977776"/>
    <poly id="161503390" type="building" color="255,230,230" fill="1" layer="2.00" shape="1796.036820,1023.623558 1809.039900,1014.680152 1806.492847,1011.010046 1793.489763,1019.953456 1796.036820,1023.623558"/>
    <poly id="161503391" type="building" color="255,230,230" fill="1" layer="2.00" shape="1922.239723,1144.333485 1926.479656,1150.964453 1930.325305,1152.042972 1933.636961,1149.944997 1927.801099,1140.806694 1922.239723,1144.333485"/>
    <poly id="165141507" type="building" color="255,230,230" fill="1" layer="2.00" shape="1313.775724,1542.296936 1316.613674,1566.952013 1313.650121,1567.292613 1313.877606,1569.297406 1318.752586,1581.776734 1320.973016,1581.524089 1342.550348,1744.689650 1328.929852,1767.265336 1326.725941,1766.086673 1279.349590,1839.195868 1292.179515,1847.349317 1297.749464,1839.251409 1301.728433,1838.830163 1320.841976,1808.512597 1319.037756,1800.150819 1336.642906,1772.982603 1335.248700,1771.936935 1350.564791,1746.608733 1329.190380,1580.389600 1331.509565,1580.057935 1331.949182,1567.238707 1331.721701,1565.233914 1327.634933,1565.745384 1324.324930,1541.085753 1313.775724,1542.296936"/>
    <poly id="168108423" type="unknown" color="51,128,255" fill="0" layer="-1.00" shape="1337.991078,1576.151915 1334.902292,1578.590938 1317.785239,1593.194386 1286.751880,1620.826097 1269.551002,1634.609879 1250.023783,1648.204081 1222.881710,1665.132188 1215.818253,1669.612143"/>
    <poly id="168317069" type="amenity" color="237,199,199" fill="1" layer="2.00" shape="1358.694267,1561.587574 1358.495257,1559.016611 1343.600228,1551.213384 1340.003204,1528.765357 1339.926936,1526.536596 1340.669622,1524.451798 1342.444620,1522.186292 1344.083161,1521.209538 1353.106610,1520.596398 1354.704584,1516.691492 1355.822937,1512.893073 1356.212169,1508.882883 1346.950938,1494.955575 1351.762951,1488.476792 1357.419147,1493.135406 1366.887970,1560.054078 1358.694267,1561.587574"/>
    <poly id="172116650" type="building" color="255,230,230" fill="1" layer="2.00" shape="2546.530565,1161.006716 2552.597216,1157.240425 2548.439444,1150.608053 2542.372637,1154.363256 2546.530565,1161.006716"/>
    <poly id="172116652" type="building" color="255,230,230" fill="1" layer="2.00" shape="2555.356154,1159.177228 2564.292264,1152.831156 2560.368146,1147.349304 2551.422957,1153.695504 2555.356154,1159.177228"/>
    <poly id="172116656" type="building" color="255,230,230" fill="1" layer="2.00" shape="2549.997066,1132.470909 2543.406178,1137.065316 2553.100114,1150.888013 2559.700224,1146.304579 2549.997066,1132.470909"/>