<?xml version="1.0" encoding="UTF-8"?>
<!-- 
 This file is made available under the Open Database License: http://opendatacommons.org/licenses/odbl/1.0/. 
 Any rights in individual contents of the database are licensed under the 
 Database Contents License: http://opendatacommons.org/licenses/dbcl/1.0/.
-->
<!-- generated on 2021-07-16 13:40:13 by Eclipse SUMO netedit Version 1.9.2
<configuration xmlns:xsi="http://www.w3.org/2001/XMLSchema-instance" xsi:noNamespaceSchemaLocation="http://sumo.dlr.de/xsd/netconvertConfiguration.xsd">

    <input>
        <sumo-net-file value="minatomirai.net.xml"/>
    </input>

    <output>
        <output-file value="minatomirai.net.xml"/>
    </output>

    <processing>
        <geometry.min-radius.fix.railways value="false"/>
        <geometry.max-grade.fix value="false"/>
        <offset.disable-normalization value="true"/>
        <lefthand value="false"/>
    </processing>

    <junctions>
        <no-turnarounds value="true"/>
        <junctions.corner-detail value="5"/>
        <junctions.limit-turn-speed value="5.5"/>
        <rectangular-lane-cut value="false"/>
    </junctions>

    <pedestrian>
        <walkingareas value="false"/>
    </pedestrian>

    <report>
        <aggregate-warnings value="5"/>
    </report>

</configuration>
-->

<net version="1.9" junctionCornerDetail="5" limitTurnSpeed="5.50" xmlns:xsi="http://www.w3.org/2001/XMLSchema-instance" xsi:noNamespaceSchemaLocation="http://sumo.dlr.de/xsd/net_file.xsd">

    <location netOffset="-375943.27,-3923483.56" convBoundary="0.00,0.00,1197.55,1763.28" origBoundary="139.632722,35.446234,139.652196,35.462985" projParameter="+proj=utm +zone=54 +ellps=WGS84 +datum=WGS84 +units=m +no_defs"/>

    <type id="highway.bridleway" priority="1" numLanes="1" speed="2.78" allow="pedestrian" oneway="1" width="2.00"/>
    <type id="highway.bus_guideway" priority="1" numLanes="1" speed="27.78" allow="bus" oneway="1"/>
    <type id="highway.cycleway" priority="1" numLanes="1" speed="8.33" allow="bicycle" oneway="1" width="1.00"/>
    <type id="highway.footway" priority="1" numLanes="1" speed="2.78" allow="pedestrian" oneway="1" width="2.00"/>
    <type id="highway.ford" priority="1" numLanes="1" speed="2.78" allow="army" oneway="1"/>
    <type id="highway.living_street" priority="2" numLanes="1" speed="2.78" disallow="tram rail_urban rail rail_electric rail_fast ship" oneway="1"/>
    <type id="highway.motorway" priority="14" numLanes="2" speed="39.44" allow="private emergency authority army vip passenger hov taxi bus coach delivery truck trailer motorcycle evehicle custom1 custom2" oneway="1"/>
    <type id="highway.motorway_link" priority="9" numLanes="1" speed="22.22" allow="private emergency authority army vip passenger hov taxi bus coach delivery truck trailer motorcycle evehicle custom1 custom2" oneway="1"/>
    <type id="highway.path" priority="1" numLanes="1" speed="2.78" allow="pedestrian bicycle" oneway="1" width="2.00"/>
    <type id="highway.pedestrian" priority="1" numLanes="1" speed="2.78" allow="pedestrian" oneway="1" width="2.00"/>
    <type id="highway.primary" priority="12" numLanes="2" speed="27.78" disallow="tram rail_urban rail rail_electric rail_fast ship" oneway="1"/>
    <type id="highway.primary_link" priority="7" numLanes="1" speed="22.22" disallow="tram rail_urban rail rail_electric rail_fast ship" oneway="1"/>
    <type id="highway.raceway" priority="15" numLanes="2" speed="83.33" allow="vip" oneway="1"/>
    <type id="highway.residential" priority="3" numLanes="1" speed="13.89" disallow="tram rail_urban rail rail_electric rail_fast ship" oneway="1"/>
    <type id="highway.secondary" priority="11" numLanes="1" speed="27.78" disallow="tram rail_urban rail rail_electric rail_fast ship" oneway="1"/>
    <type id="highway.secondary_link" priority="6" numLanes="1" speed="22.22" disallow="tram rail_urban rail rail_electric rail_fast ship" oneway="1"/>
    <type id="highway.service" priority="1" numLanes="1" speed="5.56" allow="pedestrian delivery bicycle" oneway="1"/>
    <type id="highway.stairs" priority="1" numLanes="1" speed="1.39" allow="pedestrian" oneway="1" width="2.00"/>
    <type id="highway.step" priority="1" numLanes="1" speed="1.39" allow="pedestrian" oneway="1" width="2.00"/>
    <type id="highway.steps" priority="1" numLanes="1" speed="1.39" allow="pedestrian" oneway="1" width="2.00"/>
    <type id="highway.tertiary" priority="10" numLanes="1" speed="22.22" disallow="tram rail_urban rail rail_electric rail_fast ship" oneway="1"/>
    <type id="highway.tertiary_link" priority="5" numLanes="1" speed="22.22" disallow="tram rail_urban rail rail_electric rail_fast ship" oneway="1"/>
    <type id="highway.track" priority="1" numLanes="1" speed="5.56" allow="pedestrian motorcycle moped bicycle" oneway="1"/>
    <type id="highway.trunk" priority="13" numLanes="2" speed="27.78" disallow="pedestrian bicycle tram rail_urban rail rail_electric rail_fast ship" oneway="1"/>
    <type id="highway.trunk_link" priority="8" numLanes="1" speed="22.22" disallow="pedestrian bicycle tram rail_urban rail rail_electric rail_fast ship" oneway="1"/>
    <type id="highway.unclassified" priority="4" numLanes="1" speed="13.89" disallow="tram rail_urban rail rail_electric rail_fast ship" oneway="1"/>
    <type id="highway.unsurfaced" priority="1" numLanes="1" speed="8.33" disallow="tram rail_urban rail rail_electric rail_fast ship" oneway="1"/>
    <type id="railway.highspeed" priority="21" numLanes="1" speed="69.44" allow="rail_fast" oneway="1"/>
    <type id="railway.light_rail" priority="19" numLanes="1" speed="27.78" allow="rail_urban" oneway="1"/>
    <type id="railway.preserved" priority="16" numLanes="1" speed="27.78" allow="rail" oneway="1"/>
    <type id="railway.rail" priority="20" numLanes="1" speed="44.44" allow="rail" oneway="1"/>
    <type id="railway.subway" priority="18" numLanes="1" speed="27.78" allow="rail_urban" oneway="1"/>
    <type id="railway.tram" priority="17" numLanes="1" speed="13.89" allow="tram" oneway="1"/>

    <edge id=":1028219778_0" function="internal">
        <lane id=":1028219778_0_0" index="0" disallow="tram rail_urban rail rail_electric rail_fast ship" speed="8.33" length="9.36" shape="430.48,344.18 425.12,336.50"/>
    </edge>
    <edge id=":1028219778_1" function="internal">
        <lane id=":1028219778_1_0" index="0" disallow="tram rail_urban rail rail_electric rail_fast ship" speed="6.08" length="7.77" shape="430.48,344.18 429.09,341.79 428.46,339.83 428.60,338.31 429.51,337.22"/>
    </edge>
    <edge id=":1028219778_2" function="internal">
        <lane id=":1028219778_2_0" index="0" disallow="tram rail_urban rail rail_electric rail_fast ship" speed="6.13" length="7.75" shape="431.30,339.87 429.96,340.31 428.49,339.89 426.87,338.62 425.12,336.50"/>
    </edge>
    <edge id=":1028219778_3" function="internal">
        <lane id=":1028219778_3_0" index="0" disallow="tram rail_urban rail rail_electric rail_fast ship" speed="3.65" length="4.67" shape="431.30,339.87 429.86,339.88 429.08,339.44 428.96,338.56 429.51,337.22"/>
    </edge>
    <edge id=":1028220585_0" function="internal">
        <lane id=":1028220585_0_0" index="0" disallow="tram rail_urban rail rail_electric rail_fast ship" speed="6.53" length="9.06" shape="525.16,285.82 523.52,283.96 521.68,283.07 519.63,283.15 517.38,284.19"/>
    </edge>
    <edge id=":1028220585_1" function="internal">
        <lane id=":1028220585_1_0" index="0" disallow="tram rail_urban rail rail_electric rail_fast ship" speed="13.89" length="14.40" shape="525.16,285.82 517.29,273.76"/>
    </edge>
    <edge id=":1028220585_2" function="internal">
        <lane id=":1028220585_2_0" index="0" disallow="tram rail_urban rail rail_electric rail_fast ship" speed="3.65" length="4.67" shape="525.16,285.82 525.17,284.38 525.62,283.61 526.51,283.50 527.84,284.07"/>
    </edge>
    <edge id=":1028220585_3" function="internal">
        <lane id=":1028220585_3_0" index="0" disallow="tram rail_urban rail rail_electric rail_fast ship" speed="13.89" length="14.40" shape="519.97,272.01 527.84,284.07"/>
    </edge>
    <edge id=":1028220585_4" function="internal">
        <lane id=":1028220585_4_0" index="0" disallow="tram rail_urban rail rail_electric rail_fast ship" speed="8.00" length="14.21" shape="519.97,272.01 521.61,275.54 521.73,278.75 520.32,281.63 517.38,284.19"/>
    </edge>
    <edge id=":1028220585_5" function="internal">
        <lane id=":1028220585_5_0" index="0" disallow="tram rail_urban rail rail_electric rail_fast ship" speed="3.65" length="4.67" shape="519.97,272.01 519.96,273.45 519.50,274.23 518.62,274.33 517.29,273.76"/>
    </edge>
    <edge id=":1028220585_6" function="internal">
        <lane id=":1028220585_6_0" index="0" disallow="tram rail_urban rail rail_electric rail_fast ship" speed="6.50" length="9.03" shape="515.64,281.50 517.51,279.87 518.41,278.04 518.33,276.00 517.29,273.76"/>
    </edge>
    <edge id=":1028220585_7" function="internal">
        <lane id=":1028220585_7_0" index="0" disallow="tram rail_urban rail rail_electric rail_fast ship" speed="8.02" length="14.20" shape="515.64,281.50 519.18,279.87 522.39,279.75 525.27,281.15 527.84,284.07"/>
    </edge>
    <edge id=":1028220585_8" function="internal">
        <lane id=":1028220585_8_0" index="0" disallow="tram rail_urban rail rail_electric rail_fast ship" speed="3.65" length="4.67" shape="515.64,281.50 517.08,281.52 517.85,281.98 517.95,282.86 517.38,284.19"/>
    </edge>
    <edge id=":2299283517_0" function="internal">
        <lane id=":2299283517_0_0" index="0" disallow="tram rail_urban rail rail_electric rail_fast ship" speed="8.33" length="9.45" shape="464.76,738.64 456.87,743.86"/>
        <lane id=":2299283517_0_1" index="1" disallow="tram rail_urban rail rail_electric rail_fast ship" speed="8.33" length="9.45" shape="462.98,735.98 455.11,741.18"/>
    </edge>
    <edge id=":2299283517_2" function="internal">
        <lane id=":2299283517_2_0" index="0" allow="pedestrian delivery bicycle" speed="6.11" length="7.38" shape="462.98,735.98 460.63,737.36 458.73,738.07 457.29,738.10 456.29,737.45"/>
    </edge>
    <edge id=":2299283517_3" function="internal">
        <lane id=":2299283517_3_0" index="0" allow="pedestrian delivery bicycle" speed="5.84" length="7.51" shape="458.81,735.48 459.22,736.65 458.73,737.99 457.37,739.50 455.11,741.18"/>
    </edge>
    <edge id=":2299283517_4" function="internal">
        <lane id=":2299283517_4_0" index="0" allow="pedestrian delivery bicycle" speed="3.65" length="4.67" shape="458.81,735.48 458.92,736.92 458.54,737.73 457.66,737.91 456.29,737.45"/>
    </edge>
    <edge id=":232055802_0" function="internal">
        <lane id=":232055802_0_0" index="0" disallow="tram rail_urban rail rail_electric rail_fast ship" speed="3.65" length="4.67" shape="483.65,220.49 483.70,219.05 484.16,218.28 485.05,218.20 486.37,218.79"/>
    </edge>
    <edge id=":281755076_0" function="internal">
        <lane id=":281755076_0_0" index="0" disallow="tram rail_urban rail rail_electric rail_fast ship" speed="8.33" length="11.88" shape="480.76,917.24 473.92,907.52"/>
    </edge>
    <edge id=":281755076_1" function="internal">
        <lane id=":281755076_1_0" index="0" disallow="tram rail_urban rail rail_electric rail_fast ship" speed="7.22" length="3.47" shape="480.76,917.24 480.06,915.22 480.38,913.92"/>
    </edge>
    <edge id=":281755076_2" function="internal">
        <lane id=":281755076_2_0" index="0" disallow="tram rail_urban rail rail_electric rail_fast ship" speed="3.65" length="2.34" shape="480.76,917.24 480.75,915.79 481.20,915.02"/>
    </edge>
    <edge id=":281755076_9" function="internal">
        <lane id=":281755076_9_0" index="0" disallow="tram rail_urban rail rail_electric rail_fast ship" speed="7.22" length="7.66" shape="480.38,913.92 480.59,913.05 482.34,910.73 485.31,908.27"/>
    </edge>
    <edge id=":281755076_10" function="internal">
        <lane id=":281755076_10_0" index="0" disallow="tram rail_urban rail rail_electric rail_fast ship" speed="3.65" length="2.34" shape="481.20,915.02 482.08,914.90 483.42,915.45"/>
    </edge>
    <edge id=":281755076_3" function="internal">
        <lane id=":281755076_3_0" index="0" disallow="tram rail_urban rail rail_electric rail_fast ship" speed="6.96" length="10.40" shape="476.51,905.64 478.65,908.00 480.83,909.22 483.05,909.31 485.31,908.27"/>
    </edge>
    <edge id=":281755076_4" function="internal">
        <lane id=":281755076_4_0" index="0" disallow="tram rail_urban rail rail_electric rail_fast ship" speed="8.33" length="12.00" shape="476.51,905.64 483.42,915.45"/>
    </edge>
    <edge id=":281755076_5" function="internal">
        <lane id=":281755076_5_0" index="0" disallow="tram rail_urban rail rail_electric rail_fast ship" speed="3.65" length="2.34" shape="476.51,905.64 476.56,907.08 476.15,907.88"/>
    </edge>
    <edge id=":281755076_11" function="internal">
        <lane id=":281755076_11_0" index="0" disallow="tram rail_urban rail rail_electric rail_fast ship" speed="3.65" length="2.34" shape="476.15,907.88 475.27,908.02 473.92,907.52"/>
    </edge>
    <edge id=":281755076_6" function="internal">
        <lane id=":281755076_6_0" index="0" disallow="tram rail_urban rail rail_electric rail_fast ship" speed="6.63" length="9.05" shape="472.63,915.45 474.38,913.61 475.17,911.68 475.02,909.65 473.92,907.52"/>
    </edge>
    <edge id=":281755076_7" function="internal">
        <lane id=":281755076_7_0" index="0" disallow="tram rail_urban rail rail_electric rail_fast ship" speed="15.27" length="14.61" shape="472.63,915.45 476.43,912.81 479.57,911.23 482.41,909.97 485.31,908.27"/>
    </edge>
    <edge id=":281755076_8" function="internal">
        <lane id=":281755076_8_0" index="0" disallow="tram rail_urban rail rail_electric rail_fast ship" speed="6.68" length="10.21" shape="474.50,918.05 477.65,915.80 480.19,914.62 482.11,914.50 483.42,915.45"/>
    </edge>
    <edge id=":281755081_0" function="internal">
        <lane id=":281755081_0_0" index="0" disallow="tram rail_urban rail rail_electric rail_fast ship" speed="6.03" length="8.00" shape="691.21,753.80 692.83,755.70 694.48,756.67 696.16,756.71 697.86,755.82"/>
    </edge>
    <edge id=":281755081_1" function="internal">
        <lane id=":281755081_1_0" index="0" disallow="tram rail_urban rail rail_electric rail_fast ship" speed="16.66" length="11.47" shape="691.21,753.80 693.15,756.20 694.92,757.79 696.78,759.49 699.01,762.18"/>
    </edge>
    <edge id=":281755081_2" function="internal">
        <lane id=":281755081_2_0" index="0" disallow="tram rail_urban rail rail_electric rail_fast ship" speed="9.72" length="11.58" shape="688.60,762.78 697.86,755.82"/>
    </edge>
    <edge id=":281755081_3" function="internal">
        <lane id=":281755081_3_0" index="0" disallow="tram rail_urban rail rail_electric rail_fast ship" speed="6.48" length="9.03" shape="688.60,762.78 690.79,761.61 692.82,761.44 694.69,762.24 696.40,764.04"/>
    </edge>
    <edge id=":281755095_0" function="internal">
        <lane id=":281755095_0_0" index="0" allow="pedestrian delivery bicycle" speed="5.79" length="7.10" shape="837.01,462.50 836.19,461.97 835.77,460.71 835.75,458.69 836.13,455.94"/>
    </edge>
    <edge id=":281755095_1" function="internal">
        <lane id=":281755095_1_0" index="0" allow="pedestrian delivery bicycle" speed="3.65" length="4.67" shape="837.01,462.50 835.95,461.53 835.67,460.68 836.18,459.95 837.49,459.33"/>
    </edge>
    <edge id=":281755095_2" function="internal">
        <lane id=":281755095_2_0" index="0" disallow="tram rail_urban rail rail_electric rail_fast ship" speed="11.11" length="9.47" shape="831.36,464.73 832.98,455.36"/>
        <lane id=":281755095_2_1" index="1" disallow="tram rail_urban rail rail_electric rail_fast ship" speed="11.11" length="9.47" shape="834.52,465.24 836.13,455.94"/>
    </edge>
    <edge id=":281755095_4" function="internal">
        <lane id=":281755095_4_0" index="0" allow="pedestrian delivery bicycle" speed="5.86" length="7.05" shape="834.52,465.24 835.08,462.54 835.76,460.66 836.56,459.59 837.49,459.33"/>
    </edge>
    <edge id=":281755097_0" function="internal">
        <lane id=":281755097_0_0" index="0" disallow="tram rail_urban rail rail_electric rail_fast ship" speed="11.11" length="0.30" shape="839.80,408.69 839.84,408.40"/>
        <lane id=":281755097_0_1" index="1" disallow="tram rail_urban rail rail_electric rail_fast ship" speed="11.11" length="0.30" shape="842.96,409.15 843.01,408.85"/>
    </edge>
    <edge id=":281755178_0" function="internal">
        <lane id=":281755178_0_0" index="0" disallow="tram rail_urban rail rail_electric rail_fast ship" speed="6.46" length="9.03" shape="293.45,1087.69 291.19,1086.67 289.16,1086.62 287.35,1087.55 285.77,1089.47"/>
    </edge>
    <edge id=":281755178_1" function="internal">
        <lane id=":281755178_1_0" index="0" disallow="tram rail_urban rail rail_electric rail_fast ship" speed="22.22" length="9.38" shape="293.45,1087.69 285.56,1082.62"/>
    </edge>
    <edge id=":281755178_2" function="internal">
        <lane id=":281755178_2_0" index="0" disallow="tram rail_urban rail rail_electric rail_fast ship" speed="3.65" length="2.34" shape="293.45,1087.69 292.87,1086.37 292.97,1085.48"/>
    </edge>
    <edge id=":281755178_9" function="internal">
        <lane id=":281755178_9_0" index="0" disallow="tram rail_urban rail rail_electric rail_fast ship" speed="3.65" length="2.34" shape="292.97,1085.48 293.74,1085.02 295.18,1085.00"/>
    </edge>
    <edge id=":281755178_3" function="internal">
        <lane id=":281755178_3_0" index="0" disallow="tram rail_urban rail rail_electric rail_fast ship" speed="6.69" length="9.30" shape="293.21,1077.01 292.26,1079.34 292.27,1081.45 293.24,1083.34 295.18,1085.00"/>
    </edge>
    <edge id=":281755178_4" function="internal">
        <lane id=":281755178_4_0" index="0" disallow="tram rail_urban rail rail_electric rail_fast ship" speed="11.11" length="14.51" shape="293.21,1077.01 285.77,1089.47"/>
    </edge>
    <edge id=":281755178_5" function="internal">
        <lane id=":281755178_5_0" index="0" disallow="tram rail_urban rail rail_electric rail_fast ship" speed="6.84" length="10.43" shape="293.21,1077.01 291.05,1080.23 289.06,1082.24 287.23,1083.04 285.56,1082.62"/>
    </edge>
    <edge id=":281755178_6" function="internal">
        <lane id=":281755178_6_0" index="0" disallow="tram rail_urban rail rail_electric rail_fast ship" speed="22.22" length="9.37" shape="287.29,1079.93 295.18,1085.00"/>
    </edge>
    <edge id=":281755178_7" function="internal">
        <lane id=":281755178_7_0" index="0" disallow="tram rail_urban rail rail_electric rail_fast ship" speed="7.03" length="2.99" shape="287.29,1079.93 288.35,1081.28 288.42,1082.56"/>
    </edge>
    <edge id=":281755178_8" function="internal">
        <lane id=":281755178_8_0" index="0" disallow="tram rail_urban rail rail_electric rail_fast ship" speed="3.65" length="2.34" shape="287.29,1079.93 287.87,1081.26 287.77,1082.15"/>
    </edge>
    <edge id=":281755178_10" function="internal">
        <lane id=":281755178_10_0" index="0" disallow="tram rail_urban rail rail_electric rail_fast ship" speed="7.03" length="7.50" shape="288.42,1082.56 288.45,1083.31 287.59,1086.04 285.77,1089.47"/>
    </edge>
    <edge id=":281755178_11" function="internal">
        <lane id=":281755178_11_0" index="0" disallow="tram rail_urban rail rail_electric rail_fast ship" speed="3.65" length="2.34" shape="287.77,1082.15 287.00,1082.60 285.56,1082.62"/>
    </edge>
    <edge id=":281755187_0" function="internal">
        <lane id=":281755187_0_0" index="0" disallow="tram rail_urban rail rail_electric rail_fast ship" speed="6.28" length="9.04" shape="456.81,883.96 455.05,882.16 453.19,881.43 451.22,881.77 449.13,883.19"/>
    </edge>
    <edge id=":281755187_1" function="internal">
        <lane id=":281755187_1_0" index="0" disallow="tram rail_urban rail rail_electric rail_fast ship" speed="8.33" length="12.30" shape="456.81,883.96 455.35,881.24 454.91,878.74 454.79,875.89 454.29,872.11"/>
    </edge>
    <edge id=":281755187_2" function="internal">
        <lane id=":281755187_2_0" index="0" disallow="tram rail_urban rail rail_electric rail_fast ship" speed="3.65" length="2.53" shape="456.81,883.96 456.75,882.52 457.16,881.73 457.36,881.70"/>
    </edge>
    <edge id=":281755187_9" function="internal">
        <lane id=":281755187_9_0" index="0" disallow="tram rail_urban rail rail_electric rail_fast ship" speed="3.65" length="2.14" shape="457.36,881.70 458.05,881.58 459.40,882.08"/>
    </edge>
    <edge id=":281755187_3" function="internal">
        <lane id=":281755187_3_0" index="0" disallow="tram rail_urban rail rail_electric rail_fast ship" speed="6.98" length="11.04" shape="460.42,872.58 458.32,874.47 457.46,876.68 457.81,879.22 459.40,882.08"/>
    </edge>
    <edge id=":281755187_4" function="internal">
        <lane id=":281755187_4_0" index="0" disallow="tram rail_urban rail rail_electric rail_fast ship" speed="15.27" length="15.83" shape="460.42,872.58 457.36,874.25 454.30,875.71 450.94,877.67 446.97,880.82"/>
    </edge>
    <edge id=":281755187_5" function="internal">
        <lane id=":281755187_5_0" index="0" disallow="tram rail_urban rail rail_electric rail_fast ship" speed="5.40" length="7.54" shape="460.42,872.58 458.04,873.82 456.22,874.16 454.97,873.59 454.29,872.11"/>
    </edge>
    <edge id=":281755187_6" function="internal">
        <lane id=":281755187_6_0" index="0" disallow="tram rail_urban rail rail_electric rail_fast ship" speed="8.33" length="0.40" shape="451.06,872.37 451.16,872.76"/>
    </edge>
    <edge id=":281755187_7" function="internal">
        <lane id=":281755187_7_0" index="0" disallow="tram rail_urban rail rail_electric rail_fast ship" speed="8.33" length="12.84" shape="451.06,872.37 453.94,875.14 455.90,877.32 457.52,879.47 459.40,882.08"/>
    </edge>
    <edge id=":281755187_8" function="internal">
        <lane id=":281755187_8_0" index="0" disallow="tram rail_urban rail rail_electric rail_fast ship" speed="5.72" length="7.23" shape="448.90,874.74 449.67,875.93 449.61,877.34 448.71,878.97 446.97,880.82"/>
    </edge>
    <edge id=":281755205_0" function="internal">
        <lane id=":281755205_0_0" index="0" disallow="tram rail_urban rail rail_electric rail_fast ship" speed="6.53" length="8.68" shape="680.50,728.71 678.84,730.40 678.09,732.23 678.23,734.20 679.27,736.31"/>
    </edge>
    <edge id=":281755205_1" function="internal">
        <lane id=":281755205_1_0" index="0" disallow="tram rail_urban rail rail_electric rail_fast ship" speed="9.72" length="12.24" shape="678.54,726.17 675.70,728.67 673.86,730.73 672.17,732.64 669.77,734.67"/>
    </edge>
    <edge id=":281755205_2" function="internal">
        <lane id=":281755205_2_0" index="0" disallow="tram rail_urban rail rail_electric rail_fast ship" speed="15.27" length="14.18" shape="672.70,723.77 675.00,727.63 676.41,730.70 677.61,733.44 679.27,736.31"/>
    </edge>
    <edge id=":281755205_3" function="internal">
        <lane id=":281755205_3_0" index="0" disallow="tram rail_urban rail rail_electric rail_fast ship" speed="6.97" length="10.26" shape="670.05,725.56 671.55,728.38 672.00,730.84 671.40,732.93 669.77,734.67"/>
    </edge>
    <edge id=":281755289_0" function="internal">
        <lane id=":281755289_0_0" index="0" disallow="tram rail_urban rail rail_electric rail_fast ship" speed="6.82" length="10.42" shape="850.16,157.28 852.79,156.13 855.13,156.13 857.16,157.28 858.89,159.58"/>
        <lane id=":281755289_0_1" index="1" disallow="tram rail_urban rail rail_electric rail_fast ship" speed="6.03" length="7.90" shape="850.16,157.28 851.60,156.86 853.06,157.36 854.56,158.78 856.08,161.12"/>
    </edge>
    <edge id=":281755289_2" function="internal">
        <lane id=":281755289_2_0" index="0" disallow="tram rail_urban rail rail_electric rail_fast ship" speed="3.65" length="4.67" shape="850.16,157.28 851.60,157.33 852.36,157.80 852.44,158.69 851.84,160.00"/>
    </edge>
    <edge id=":281759508_0" function="internal">
        <lane id=":281759508_0_0" index="0" allow="pedestrian delivery bicycle" speed="5.56" length="6.57" shape="951.88,474.34 950.93,475.11 950.20,476.34 949.68,478.02 949.39,480.16"/>
    </edge>
    <edge id=":281759508_1" function="internal">
        <lane id=":281759508_1_0" index="0" allow="pedestrian delivery bicycle" speed="5.56" length="9.35" shape="951.88,474.34 949.39,475.54 947.60,476.16 945.72,476.52 942.97,476.96"/>
    </edge>
    <edge id=":281759508_2" function="internal">
        <lane id=":281759508_2_0" index="0" allow="pedestrian delivery bicycle" speed="3.65" length="4.67" shape="951.88,474.34 950.44,474.18 949.72,473.66 949.70,472.76 950.40,471.50"/>
    </edge>
    <edge id=":281759508_3" function="internal">
        <lane id=":281759508_3_0" index="0" allow="pedestrian delivery bicycle" speed="5.56" length="8.46" shape="942.43,473.80 944.91,473.77 946.59,473.42 948.18,472.69 950.40,471.50"/>
    </edge>
    <edge id=":281759508_4" function="internal">
        <lane id=":281759508_4_0" index="0" allow="pedestrian delivery bicycle" speed="5.56" length="10.82" shape="942.43,473.80 945.66,474.29 947.89,475.52 949.13,477.47 949.39,480.16"/>
    </edge>
    <edge id=":281759508_5" function="internal">
        <lane id=":281759508_5_0" index="0" allow="pedestrian delivery bicycle" speed="3.74" length="4.67" shape="942.43,473.80 943.75,474.39 944.28,475.11 944.02,475.96 942.97,476.96"/>
    </edge>
    <edge id=":281759508_6" function="internal">
        <lane id=":281759508_6_0" index="0" allow="pedestrian delivery bicycle" speed="4.82" length="5.33" shape="946.20,479.90 946.10,478.39 945.53,477.39 944.49,476.91 942.97,476.96"/>
    </edge>
    <edge id=":281759508_7" function="internal">
        <lane id=":281759508_7_0" index="0" allow="pedestrian delivery bicycle" speed="5.56" length="9.79" shape="946.20,479.90 946.65,476.95 947.51,474.56 948.75,472.74 950.40,471.50"/>
    </edge>
    <edge id=":281759508_8" function="internal">
        <lane id=":281759508_8_0" index="0" allow="pedestrian delivery bicycle" speed="3.65" length="4.67" shape="946.20,479.90 947.09,478.77 947.92,478.44 948.68,478.90 949.39,480.16"/>
    </edge>
    <edge id=":283015809_0" function="internal">
        <lane id=":283015809_0_0" index="0" allow="pedestrian delivery bicycle" speed="5.49" length="5.17" shape="513.30,963.92 512.23,963.22 511.08,962.99 509.87,963.24 508.59,963.97"/>
    </edge>
    <edge id=":283015809_1" function="internal">
        <lane id=":283015809_1_0" index="0" disallow="tram rail_urban rail rail_electric rail_fast ship" speed="8.33" length="9.04" shape="513.30,963.92 511.33,962.10 510.07,960.77 508.96,959.30 507.46,957.07"/>
    </edge>
    <edge id=":283015809_2" function="internal">
        <lane id=":283015809_2_0" index="0" disallow="tram rail_urban rail rail_electric rail_fast ship" speed="3.65" length="2.34" shape="513.30,963.92 512.95,962.52 513.19,961.66"/>
    </edge>
    <edge id=":283015809_9" function="internal">
        <lane id=":283015809_9_0" index="0" disallow="tram rail_urban rail rail_electric rail_fast ship" speed="3.65" length="2.34" shape="513.19,961.66 514.02,961.33 515.45,961.54"/>
    </edge>
    <edge id=":283015809_3" function="internal">
        <lane id=":283015809_3_0" index="0" disallow="tram rail_urban rail rail_electric rail_fast ship" speed="8.33" length="8.26" shape="510.11,955.29 511.48,957.32 512.50,958.66 513.65,959.88 515.45,961.54"/>
    </edge>
    <edge id=":283015809_4" function="internal">
        <lane id=":283015809_4_0" index="0" allow="pedestrian delivery bicycle" speed="6.90" length="4.85" shape="510.11,955.29 511.29,957.74 511.42,959.87"/>
    </edge>
    <edge id=":283015809_5" function="internal">
        <lane id=":283015809_5_0" index="0" disallow="tram rail_urban rail rail_electric rail_fast ship" speed="3.65" length="2.34" shape="510.11,955.29 510.12,956.73 509.68,957.51"/>
    </edge>
    <edge id=":283015809_10" function="internal">
        <lane id=":283015809_10_0" index="0" allow="pedestrian delivery bicycle" speed="6.90" length="5.10" shape="511.42,959.87 511.43,960.00 510.53,962.08 508.59,963.97"/>
    </edge>
    <edge id=":283015809_11" function="internal">
        <lane id=":283015809_11_0" index="0" disallow="tram rail_urban rail rail_electric rail_fast ship" speed="3.65" length="2.34" shape="509.68,957.51 508.79,957.63 507.46,957.07"/>
    </edge>
    <edge id=":283015809_6" function="internal">
        <lane id=":283015809_6_0" index="0" allow="pedestrian delivery bicycle" speed="5.09" length="4.95" shape="506.70,961.39 507.66,960.45 508.11,959.41 508.04,958.29 507.46,957.07"/>
    </edge>
    <edge id=":283015809_7" function="internal">
        <lane id=":283015809_7_0" index="0" allow="pedestrian delivery bicycle" speed="6.95" length="9.59" shape="506.70,961.39 509.02,960.10 511.25,959.69 513.40,960.17 515.45,961.54"/>
    </edge>
    <edge id=":283015809_8" function="internal">
        <lane id=":283015809_8_0" index="0" allow="pedestrian delivery bicycle" speed="3.65" length="4.67" shape="506.70,961.39 508.14,961.32 508.93,961.73 509.08,962.62 508.59,963.97"/>
    </edge>
    <edge id=":283015820_0" function="internal">
        <lane id=":283015820_0_0" index="0" disallow="tram rail_urban rail rail_electric rail_fast ship" speed="6.05" length="6.50" shape="748.96,836.88 748.28,836.72 747.08,837.08 745.38,837.97 743.18,839.39"/>
    </edge>