<?xml version="1.0" encoding="UTF-8"?>

<!-- generated on 2023-03-15 12:46:09 by Eclipse SUMO netedit Version 1.12.0
-->

<routes xmlns:xsi="http://www.w3.org/2001/XMLSchema-instance" xsi:noNamespaceSchemaLocation="http://sumo.dlr.de/xsd/routes_file.xsd">
    <trip id="t_0" depart="0.00" from="26616878#1" to="328071933#1"/>
    <trip id="t_1" depart="0.00" from="72660301#2" to="-26616878#1"/>
    <trip id="t_2" depart="0.00" from="26616878#1" to="328071933#1"/>
    <trip id="t_3" depart="0.00" from="72660301#2" to="832563178#0"/>
</routes>
